<?xml version="1.0" encoding="UTF-8"?>
<!-- generated on 2021-10-06 20:55:28.729069 by $Id$ v1_8_0+1335-39b66c48f0d
  options: -r /home/max/remote/airport-harper-sumo/sumo-xml/random-routes/validated.random.route.xml -t /home/max/remote/airport-harper-sumo/sumo-xml/route-sampler/route_sampler.in.xml -o /home/max/remote/airport-harper-sumo/sumo-xml/sasumo-xml/route-file/02_24_route_sampler.route.xml <doubleminus>optimize full <doubleminus>write-route-ids -V -a departSpeed="desired" departPos="free" <doubleminus>threads 55
-->
<routes xmlns:xsi="http://www.w3.org/2001/XMLSchema-instance" xsi:noNamespaceSchemaLocation="http://sumo.dlr.de/xsd/routes_file.xsd">
<!-- begin="0.0" end="600.0" -->
    <route id="0_1" edges="-8867312#6 gneE20 gneE23 115872656#8 115872656#9 115872656#10 115872656#10.14 115872656#11 115872656#11.5 gneE11 115872656#13.8"/> <!-- 1 -->
    <route id="0_2" edges="-8867312#6 gneE20 gneE23 115872656#8 115872656#9 115872656#10 115872656#10.14 115872656#11 115872656#11.5 gneE11 gneE1 -8868160#0"/> <!-- 1 -->
    <route id="0_3" edges="-8867312#6 gneE20 gneE23 115872656#8 115872656#9 115872656#10 115872656#10.14 638636924#1 638636924#1.8"/> <!-- 1 -->
    <route id="0_4" edges="-8867312#6 gneE20 gneE23 115872656#8 115872656#9 115872656#10 gneE5 -660891910#1.13"/> <!-- 1 -->
    <route id="0_5" edges="-8867312#6 gneE20 gneE23 115872656#8 115872656#9 gneE28"/> <!-- 1 -->
    <route id="0_7" edges="-8867312#6 gneE9 834845345#9.4 834845345#12 gneE14"/> <!-- 2 -->
    <route id="0_8" edges="115872656#4 115872656#5 115872656#6 gneE10 -8867312#4.11"/> <!-- 9 -->
    <route id="0_9" edges="115872656#4 115872656#5 115872656#6 gneE22 gneE22.27 gneE23 115872656#8 115872656#9 115872656#10 115872656#10.14 115872656#11 115872656#11.5 gneE11 115872656#13.8"/> <!-- 77 -->
    <route id="0_10" edges="115872656#4 115872656#5 115872656#6 gneE22 gneE22.27 gneE23 115872656#8 115872656#9 115872656#10 115872656#10.14 115872656#11 115872656#11.5 gneE11 gneE1 -8868160#0"/> <!-- 5 -->
    <route id="0_11" edges="115872656#4 115872656#5 115872656#6 gneE22 gneE22.27 gneE23 115872656#8 115872656#9 115872656#10 115872656#10.14 638636924#1 638636924#1.8"/> <!-- 3 -->
    <route id="0_12" edges="115872656#4 115872656#5 115872656#6 gneE22 gneE22.27 gneE23 115872656#8 115872656#9 115872656#10 gneE5 -660891910#1.13"/> <!-- 3 -->
    <route id="0_13" edges="115872656#4 115872656#5 115872656#6 gneE22 gneE22.27 gneE23 115872656#8 115872656#9 gneE28"/> <!-- 2 -->
    <route id="0_15" edges="115872656#4 115872656#5 115872656#6 gneE22 gneE22.27 gneE26 8867312#6.18"/> <!-- 8 -->
    <route id="0_16" edges="660891910#1 660891910#1.19 638636924#1 638636924#1.8"/> <!-- 2 -->
    <route id="0_21" edges="660891910#1 gneE4 115872656#11.5 gneE11 115872656#13.8"/> <!-- 10 -->
    <route id="0_22" edges="660891910#1 gneE4 115872656#11.5 gneE11 gneE1 -8868160#0"/> <!-- 4 -->
    <route id="0_23" edges="834845345#1 834845345#1-AddedOffRampEdge 834845345#2 834845345#3.0 834845345#4-AddedOnRampEdge 834845345#4 834845345#5.74 834845345#5.74.43 -660891910#1 -660891910#1.13"/> <!-- 3 -->
    <route id="0_24" edges="834845345#1 834845345#1-AddedOffRampEdge 834845345#2 834845345#3.0 834845345#4-AddedOnRampEdge 834845345#4 834845345#5.74 834845345#5.74.43 834845345#6 834845345#6.23 834845345#7 834845345#8 834845345#8.20 834845345#8.108 834845345#9 834845345#9.4 834845345#12 gneE14"/> <!-- 115 -->
    <route id="0_25" edges="834845345#1 834845345#1-AddedOffRampEdge 834845345#2 834845345#3.0 834845345#4-AddedOnRampEdge 834845345#4 834845345#5.74 834845345#5.74.43 834845345#6 834845345#6.23 834845345#7 834845345#8 834845345#8.20 834845345#8.108 gneE19 -8867312#4.11"/> <!-- 1 -->
    <route id="0_26" edges="834845345#1 834845345#1-AddedOffRampEdge 834845345#2 834845345#3.0 834845345#4-AddedOnRampEdge 834845345#4 834845345#5.74 834845345#5.74.43 834845345#6 834845345#6.23 834845345#7 834845345#8 834845345#8.20 gneE8 8867312#6.18"/> <!-- 6 -->
    <route id="0_27" edges="834845345#1 834845345#1-AddedOffRampEdge 834845345#2 834845345#3.0 834845345#4-AddedOnRampEdge 834845345#4 834845345#5.74 834845345#5.74.43 834845345#6 gneE29"/> <!-- 2 -->
    <route id="0_28" edges="834845345#1 834845345#1-AddedOffRampEdge 834845345#2 834845345#3.0 834845345#4-AddedOnRampEdge 834845345#4 834845345#5.74 gneE2 638636924#1.8"/> <!-- 2 -->
    <route id="0_29" edges="834845345#1 834845345#1-AddedOffRampEdge 8884863 -8868160#0"/> <!-- 48 -->
    <route id="0_30" edges="8868160#0.7 Airport_to_US69 834845345#4-AddedOnRampEdge 834845345#4 834845345#5.74 834845345#5.74.43 -660891910#1 -660891910#1.13"/> <!-- 3 -->
    <route id="0_31" edges="8868160#0.7 Airport_to_US69 834845345#4-AddedOnRampEdge 834845345#4 834845345#5.74 834845345#5.74.43 834845345#6 834845345#6.23 834845345#7 834845345#8 834845345#8.20 834845345#8.108 834845345#9 834845345#9.4 834845345#12 gneE14"/> <!-- 22 -->
    <route id="0_32" edges="8868160#0.7 Airport_to_US69 834845345#4-AddedOnRampEdge 834845345#4 834845345#5.74 834845345#5.74.43 834845345#6 834845345#6.23 834845345#7 834845345#8 834845345#8.20 834845345#8.108 gneE19 -8867312#4.11"/> <!-- 1 -->
    <route id="0_33" edges="8868160#0.7 Airport_to_US69 834845345#4-AddedOnRampEdge 834845345#4 834845345#5.74 834845345#5.74.43 834845345#6 834845345#6.23 834845345#7 834845345#8 834845345#8.20 gneE8 8867312#6.18"/> <!-- 6 -->
    <route id="0_34" edges="8868160#0.7 Airport_to_US69 834845345#4-AddedOnRampEdge 834845345#4 834845345#5.74 834845345#5.74.43 834845345#6 gneE29"/> <!-- 2 -->
    <route id="0_35" edges="8868160#0.7 Airport_to_US69 834845345#4-AddedOnRampEdge 834845345#4 834845345#5.74 gneE2 638636924#1.8"/> <!-- 3 -->
    <route id="0_36" edges="8868160#0.7 gneE0.12 115872656#13.8"/> <!-- 5 -->
    <route id="0_37" edges="gneE13 gneE18 834845345#9 834845345#9.4 834845345#12 gneE14"/> <!-- 7 -->
    <route id="0_44" edges="gneE13 gneE18 gneE26 8867312#6.18"/> <!-- 4 -->
    <route id="0_45" edges="gneE17 -638636924#1.9 -660891910#1 -660891910#1.13"/> <!-- 2 -->
    <route id="0_46" edges="gneE17 -638636924#1.9 115872656#11 115872656#11.5 gneE11 115872656#13.8"/> <!-- 1 -->
    <route id="0_47" edges="gneE17 -638636924#1.9 115872656#11 115872656#11.5 gneE11 gneE1 -8868160#0"/> <!-- 1 -->
    <route id="0_48" edges="gneE17 -638636924#1.9 834845345#6 834845345#6.23 834845345#7 834845345#8 834845345#8.20 834845345#8.108 834845345#9 834845345#9.4 834845345#12 gneE14"/> <!-- 3 -->
    <route id="0_49" edges="gneE17 -638636924#1.9 834845345#6 834845345#6.23 834845345#7 834845345#8 834845345#8.20 834845345#8.108 gneE19 -8867312#4.11"/> <!-- 1 -->
    <route id="0_50" edges="gneE17 -638636924#1.9 834845345#6 834845345#6.23 834845345#7 834845345#8 834845345#8.20 gneE8 8867312#6.18"/> <!-- 2 -->
    <route id="0_51" edges="gneE17 -638636924#1.9 834845345#6 gneE29"/> <!-- 1 -->

    <vehicle id="0_0" depart="0.00" route="0_9" departSpeed="desired" departPos="free"/>
    <vehicle id="0_1" depart="1.62" route="0_29" departSpeed="desired" departPos="free"/>
    <vehicle id="0_2" depart="3.23" route="0_50" departSpeed="desired" departPos="free"/>
    <vehicle id="0_3" depart="4.85" route="0_8" departSpeed="desired" departPos="free"/>
    <vehicle id="0_4" depart="6.47" route="0_15" departSpeed="desired" departPos="free"/>
    <vehicle id="0_5" depart="8.09" route="0_8" departSpeed="desired" departPos="free"/>
    <vehicle id="0_6" depart="9.70" route="0_9" departSpeed="desired" departPos="free"/>
    <vehicle id="0_7" depart="11.32" route="0_26" departSpeed="desired" departPos="free"/>
    <vehicle id="0_8" depart="12.94" route="0_30" departSpeed="desired" departPos="free"/>
    <vehicle id="0_9" depart="14.56" route="0_24" departSpeed="desired" departPos="free"/>
    <vehicle id="0_10" depart="16.17" route="0_9" departSpeed="desired" departPos="free"/>
    <vehicle id="0_11" depart="17.79" route="0_9" departSpeed="desired" departPos="free"/>
    <vehicle id="0_12" depart="19.41" route="0_24" departSpeed="desired" departPos="free"/>
    <vehicle id="0_13" depart="21.02" route="0_45" departSpeed="desired" departPos="free"/>
    <vehicle id="0_14" depart="22.64" route="0_21" departSpeed="desired" departPos="free"/>
    <vehicle id="0_15" depart="24.26" route="0_24" departSpeed="desired" departPos="free"/>
    <vehicle id="0_16" depart="25.88" route="0_29" departSpeed="desired" departPos="free"/>
    <vehicle id="0_17" depart="27.49" route="0_24" departSpeed="desired" departPos="free"/>
    <vehicle id="0_18" depart="29.11" route="0_9" departSpeed="desired" departPos="free"/>
    <vehicle id="0_19" depart="30.73" route="0_9" departSpeed="desired" departPos="free"/>
    <vehicle id="0_20" depart="32.35" route="0_29" departSpeed="desired" departPos="free"/>
    <vehicle id="0_21" depart="33.96" route="0_31" departSpeed="desired" departPos="free"/>
    <vehicle id="0_22" depart="35.58" route="0_26" departSpeed="desired" departPos="free"/>
    <vehicle id="0_23" depart="37.20" route="0_24" departSpeed="desired" departPos="free"/>
    <vehicle id="0_24" depart="38.81" route="0_16" departSpeed="desired" departPos="free"/>
    <vehicle id="0_25" depart="40.43" route="0_23" departSpeed="desired" departPos="free"/>
    <vehicle id="0_26" depart="42.05" route="0_9" departSpeed="desired" departPos="free"/>
    <vehicle id="0_27" depart="43.67" route="0_29" departSpeed="desired" departPos="free"/>
    <vehicle id="0_28" depart="45.28" route="0_23" departSpeed="desired" departPos="free"/>
    <vehicle id="0_29" depart="46.90" route="0_26" departSpeed="desired" departPos="free"/>
    <vehicle id="0_30" depart="48.52" route="0_24" departSpeed="desired" departPos="free"/>
    <vehicle id="0_31" depart="50.13" route="0_24" departSpeed="desired" departPos="free"/>
    <vehicle id="0_32" depart="51.75" route="0_13" departSpeed="desired" departPos="free"/>
    <vehicle id="0_33" depart="53.37" route="0_29" departSpeed="desired" departPos="free"/>
    <vehicle id="0_34" depart="54.99" route="0_9" departSpeed="desired" departPos="free"/>
    <vehicle id="0_35" depart="56.60" route="0_22" departSpeed="desired" departPos="free"/>
    <vehicle id="0_36" depart="58.22" route="0_29" departSpeed="desired" departPos="free"/>
    <vehicle id="0_37" depart="59.84" route="0_29" departSpeed="desired" departPos="free"/>
    <vehicle id="0_38" depart="61.46" route="0_29" departSpeed="desired" departPos="free"/>
    <vehicle id="0_39" depart="63.07" route="0_29" departSpeed="desired" departPos="free"/>
    <vehicle id="0_40" depart="64.69" route="0_9" departSpeed="desired" departPos="free"/>
    <vehicle id="0_41" depart="66.31" route="0_9" departSpeed="desired" departPos="free"/>
    <vehicle id="0_42" depart="67.92" route="0_23" departSpeed="desired" departPos="free"/>
    <vehicle id="0_43" depart="69.54" route="0_26" departSpeed="desired" departPos="free"/>
    <vehicle id="0_44" depart="71.16" route="0_24" departSpeed="desired" departPos="free"/>
    <vehicle id="0_45" depart="72.78" route="0_24" departSpeed="desired" departPos="free"/>
    <vehicle id="0_46" depart="74.39" route="0_24" departSpeed="desired" departPos="free"/>
    <vehicle id="0_47" depart="76.01" route="0_9" departSpeed="desired" departPos="free"/>
    <vehicle id="0_48" depart="77.63" route="0_24" departSpeed="desired" departPos="free"/>
    <vehicle id="0_49" depart="79.25" route="0_24" departSpeed="desired" departPos="free"/>
    <vehicle id="0_50" depart="80.86" route="0_29" departSpeed="desired" departPos="free"/>
    <vehicle id="0_51" depart="82.48" route="0_29" departSpeed="desired" departPos="free"/>
    <vehicle id="0_52" depart="84.10" route="0_9" departSpeed="desired" departPos="free"/>
    <vehicle id="0_53" depart="85.71" route="0_9" departSpeed="desired" departPos="free"/>
    <vehicle id="0_54" depart="87.33" route="0_24" departSpeed="desired" departPos="free"/>
    <vehicle id="0_55" depart="88.95" route="0_4" departSpeed="desired" departPos="free"/>
    <vehicle id="0_56" depart="90.57" route="0_24" departSpeed="desired" departPos="free"/>
    <vehicle id="0_57" depart="92.18" route="0_22" departSpeed="desired" departPos="free"/>
    <vehicle id="0_58" depart="93.80" route="0_24" departSpeed="desired" departPos="free"/>
    <vehicle id="0_59" depart="95.42" route="0_24" departSpeed="desired" departPos="free"/>
    <vehicle id="0_60" depart="97.04" route="0_44" departSpeed="desired" departPos="free"/>
    <vehicle id="0_61" depart="98.65" route="0_35" departSpeed="desired" departPos="free"/>
    <vehicle id="0_62" depart="100.27" route="0_15" departSpeed="desired" departPos="free"/>
    <vehicle id="0_63" depart="101.89" route="0_21" departSpeed="desired" departPos="free"/>
    <vehicle id="0_64" depart="103.50" route="0_31" departSpeed="desired" departPos="free"/>
    <vehicle id="0_65" depart="105.12" route="0_24" departSpeed="desired" departPos="free"/>
    <vehicle id="0_66" depart="106.74" route="0_9" departSpeed="desired" departPos="free"/>
    <vehicle id="0_67" depart="108.36" route="0_24" departSpeed="desired" departPos="free"/>
    <vehicle id="0_68" depart="109.97" route="0_29" departSpeed="desired" departPos="free"/>
    <vehicle id="0_69" depart="111.59" route="0_24" departSpeed="desired" departPos="free"/>
    <vehicle id="0_70" depart="113.21" route="0_29" departSpeed="desired" departPos="free"/>
    <vehicle id="0_71" depart="114.82" route="0_15" departSpeed="desired" departPos="free"/>
    <vehicle id="0_72" depart="116.44" route="0_12" departSpeed="desired" departPos="free"/>
    <vehicle id="0_73" depart="118.06" route="0_8" departSpeed="desired" departPos="free"/>
    <vehicle id="0_74" depart="119.68" route="0_9" departSpeed="desired" departPos="free"/>
    <vehicle id="0_75" depart="121.29" route="0_9" departSpeed="desired" departPos="free"/>
    <vehicle id="0_76" depart="122.91" route="0_29" departSpeed="desired" departPos="free"/>
    <vehicle id="0_77" depart="124.53" route="0_31" departSpeed="desired" departPos="free"/>
    <vehicle id="0_78" depart="126.15" route="0_9" departSpeed="desired" departPos="free"/>
    <vehicle id="0_79" depart="127.76" route="0_24" departSpeed="desired" departPos="free"/>
    <vehicle id="0_80" depart="129.38" route="0_10" departSpeed="desired" departPos="free"/>
    <vehicle id="0_81" depart="131.00" route="0_24" departSpeed="desired" departPos="free"/>
    <vehicle id="0_82" depart="132.61" route="0_9" departSpeed="desired" departPos="free"/>
    <vehicle id="0_83" depart="134.23" route="0_24" departSpeed="desired" departPos="free"/>
    <vehicle id="0_84" depart="135.85" route="0_24" departSpeed="desired" departPos="free"/>
    <vehicle id="0_85" depart="137.47" route="0_7" departSpeed="desired" departPos="free"/>
    <vehicle id="0_86" depart="139.08" route="0_15" departSpeed="desired" departPos="free"/>
    <vehicle id="0_87" depart="140.70" route="0_24" departSpeed="desired" departPos="free"/>
    <vehicle id="0_88" depart="142.32" route="0_9" departSpeed="desired" departPos="free"/>
    <vehicle id="0_89" depart="143.94" route="0_9" departSpeed="desired" departPos="free"/>
    <vehicle id="0_90" depart="145.55" route="0_36" departSpeed="desired" departPos="free"/>
    <vehicle id="0_91" depart="147.17" route="0_15" departSpeed="desired" departPos="free"/>
    <vehicle id="0_92" depart="148.79" route="0_45" departSpeed="desired" departPos="free"/>
    <vehicle id="0_93" depart="150.40" route="0_49" departSpeed="desired" departPos="free"/>
    <vehicle id="0_94" depart="152.02" route="0_21" departSpeed="desired" departPos="free"/>
    <vehicle id="0_95" depart="153.64" route="0_9" departSpeed="desired" departPos="free"/>
    <vehicle id="0_96" depart="155.26" route="0_24" departSpeed="desired" departPos="free"/>
    <vehicle id="0_97" depart="156.87" route="0_24" departSpeed="desired" departPos="free"/>
    <vehicle id="0_98" depart="158.49" route="0_10" departSpeed="desired" departPos="free"/>
    <vehicle id="0_99" depart="160.11" route="0_26" departSpeed="desired" departPos="free"/>
    <vehicle id="0_100" depart="161.73" route="0_24" departSpeed="desired" departPos="free"/>
    <vehicle id="0_101" depart="163.34" route="0_24" departSpeed="desired" departPos="free"/>
    <vehicle id="0_102" depart="164.96" route="0_24" departSpeed="desired" departPos="free"/>
    <vehicle id="0_103" depart="166.58" route="0_9" departSpeed="desired" departPos="free"/>
    <vehicle id="0_104" depart="168.19" route="0_24" departSpeed="desired" departPos="free"/>
    <vehicle id="0_105" depart="169.81" route="0_24" departSpeed="desired" departPos="free"/>
    <vehicle id="0_106" depart="171.43" route="0_9" departSpeed="desired" departPos="free"/>
    <vehicle id="0_107" depart="173.05" route="0_7" departSpeed="desired" departPos="free"/>
    <vehicle id="0_108" depart="174.66" route="0_21" departSpeed="desired" departPos="free"/>
    <vehicle id="0_109" depart="176.28" route="0_9" departSpeed="desired" departPos="free"/>
    <vehicle id="0_110" depart="177.90" route="0_24" departSpeed="desired" departPos="free"/>
    <vehicle id="0_111" depart="179.51" route="0_9" departSpeed="desired" departPos="free"/>
    <vehicle id="0_112" depart="181.13" route="0_2" departSpeed="desired" departPos="free"/>
    <vehicle id="0_113" depart="182.75" route="0_24" departSpeed="desired" departPos="free"/>
    <vehicle id="0_114" depart="184.37" route="0_9" departSpeed="desired" departPos="free"/>
    <vehicle id="0_115" depart="185.98" route="0_29" departSpeed="desired" departPos="free"/>
    <vehicle id="0_116" depart="187.60" route="0_9" departSpeed="desired" departPos="free"/>
    <vehicle id="0_117" depart="189.22" route="0_24" departSpeed="desired" departPos="free"/>
    <vehicle id="0_118" depart="190.84" route="0_31" departSpeed="desired" departPos="free"/>
    <vehicle id="0_119" depart="192.45" route="0_29" departSpeed="desired" departPos="free"/>
    <vehicle id="0_120" depart="194.07" route="0_1" departSpeed="desired" departPos="free"/>
    <vehicle id="0_121" depart="195.69" route="0_48" departSpeed="desired" departPos="free"/>
    <vehicle id="0_122" depart="197.30" route="0_9" departSpeed="desired" departPos="free"/>
    <vehicle id="0_123" depart="198.92" route="0_37" departSpeed="desired" departPos="free"/>
    <vehicle id="0_124" depart="200.54" route="0_29" departSpeed="desired" departPos="free"/>
    <vehicle id="0_125" depart="202.16" route="0_9" departSpeed="desired" departPos="free"/>
    <vehicle id="0_126" depart="203.77" route="0_31" departSpeed="desired" departPos="free"/>
    <vehicle id="0_127" depart="205.39" route="0_24" departSpeed="desired" departPos="free"/>
    <vehicle id="0_128" depart="207.01" route="0_8" departSpeed="desired" departPos="free"/>
    <vehicle id="0_129" depart="208.63" route="0_9" departSpeed="desired" departPos="free"/>
    <vehicle id="0_130" depart="210.24" route="0_24" departSpeed="desired" departPos="free"/>
    <vehicle id="0_131" depart="211.86" route="0_9" departSpeed="desired" departPos="free"/>
    <vehicle id="0_132" depart="213.48" route="0_29" departSpeed="desired" departPos="free"/>
    <vehicle id="0_133" depart="215.09" route="0_32" departSpeed="desired" departPos="free"/>
    <vehicle id="0_134" depart="216.71" route="0_9" departSpeed="desired" departPos="free"/>
    <vehicle id="0_135" depart="218.33" route="0_44" departSpeed="desired" departPos="free"/>
    <vehicle id="0_136" depart="219.95" route="0_9" departSpeed="desired" departPos="free"/>
    <vehicle id="0_137" depart="221.56" route="0_33" departSpeed="desired" departPos="free"/>
    <vehicle id="0_138" depart="223.18" route="0_24" departSpeed="desired" departPos="free"/>
    <vehicle id="0_139" depart="224.80" route="0_9" departSpeed="desired" departPos="free"/>
    <vehicle id="0_140" depart="226.42" route="0_9" departSpeed="desired" departPos="free"/>
    <vehicle id="0_141" depart="228.03" route="0_9" departSpeed="desired" departPos="free"/>
    <vehicle id="0_142" depart="229.65" route="0_29" departSpeed="desired" departPos="free"/>
    <vehicle id="0_143" depart="231.27" route="0_24" departSpeed="desired" departPos="free"/>
    <vehicle id="0_144" depart="232.88" route="0_9" departSpeed="desired" departPos="free"/>
    <vehicle id="0_145" depart="234.50" route="0_24" departSpeed="desired" departPos="free"/>
    <vehicle id="0_146" depart="236.12" route="0_44" departSpeed="desired" departPos="free"/>
    <vehicle id="0_147" depart="237.74" route="0_33" departSpeed="desired" departPos="free"/>
    <vehicle id="0_148" depart="239.35" route="0_29" departSpeed="desired" departPos="free"/>
    <vehicle id="0_149" depart="240.97" route="0_24" departSpeed="desired" departPos="free"/>
    <vehicle id="0_150" depart="242.59" route="0_9" departSpeed="desired" departPos="free"/>
    <vehicle id="0_151" depart="244.20" route="0_37" departSpeed="desired" departPos="free"/>
    <vehicle id="0_152" depart="245.82" route="0_30" departSpeed="desired" departPos="free"/>
    <vehicle id="0_153" depart="247.44" route="0_9" departSpeed="desired" departPos="free"/>
    <vehicle id="0_154" depart="249.06" route="0_9" departSpeed="desired" departPos="free"/>
    <vehicle id="0_155" depart="250.67" route="0_8" departSpeed="desired" departPos="free"/>
    <vehicle id="0_156" depart="252.29" route="0_29" departSpeed="desired" departPos="free"/>
    <vehicle id="0_157" depart="253.91" route="0_9" departSpeed="desired" departPos="free"/>
    <vehicle id="0_158" depart="255.53" route="0_21" departSpeed="desired" departPos="free"/>
    <vehicle id="0_159" depart="257.14" route="0_24" departSpeed="desired" departPos="free"/>
    <vehicle id="0_160" depart="258.76" route="0_24" departSpeed="desired" departPos="free"/>
    <vehicle id="0_161" depart="260.38" route="0_21" departSpeed="desired" departPos="free"/>
    <vehicle id="0_162" depart="261.99" route="0_15" departSpeed="desired" departPos="free"/>
    <vehicle id="0_163" depart="263.61" route="0_9" departSpeed="desired" departPos="free"/>
    <vehicle id="0_164" depart="265.23" route="0_9" departSpeed="desired" departPos="free"/>
    <vehicle id="0_165" depart="266.85" route="0_24" departSpeed="desired" departPos="free"/>
    <vehicle id="0_166" depart="268.46" route="0_9" departSpeed="desired" departPos="free"/>
    <vehicle id="0_167" depart="270.08" route="0_29" departSpeed="desired" departPos="free"/>
    <vehicle id="0_168" depart="271.70" route="0_9" departSpeed="desired" departPos="free"/>
    <vehicle id="0_169" depart="273.32" route="0_29" departSpeed="desired" departPos="free"/>
    <vehicle id="0_170" depart="274.93" route="0_24" departSpeed="desired" departPos="free"/>
    <vehicle id="0_171" depart="276.55" route="0_24" departSpeed="desired" departPos="free"/>
    <vehicle id="0_172" depart="278.17" route="0_9" departSpeed="desired" departPos="free"/>
    <vehicle id="0_173" depart="279.78" route="0_24" departSpeed="desired" departPos="free"/>
    <vehicle id="0_174" depart="281.40" route="0_24" departSpeed="desired" departPos="free"/>
    <vehicle id="0_175" depart="283.02" route="0_24" departSpeed="desired" departPos="free"/>
    <vehicle id="0_176" depart="284.64" route="0_9" departSpeed="desired" departPos="free"/>
    <vehicle id="0_177" depart="286.25" route="0_24" departSpeed="desired" departPos="free"/>
    <vehicle id="0_178" depart="287.87" route="0_11" departSpeed="desired" departPos="free"/>
    <vehicle id="0_179" depart="289.49" route="0_31" departSpeed="desired" departPos="free"/>
    <vehicle id="0_180" depart="291.11" route="0_5" departSpeed="desired" departPos="free"/>
    <vehicle id="0_181" depart="292.72" route="0_9" departSpeed="desired" departPos="free"/>
    <vehicle id="0_182" depart="294.34" route="0_29" departSpeed="desired" departPos="free"/>
    <vehicle id="0_183" depart="295.96" route="0_24" departSpeed="desired" departPos="free"/>
    <vehicle id="0_184" depart="297.57" route="0_31" departSpeed="desired" departPos="free"/>
    <vehicle id="0_185" depart="299.19" route="0_27" departSpeed="desired" departPos="free"/>
    <vehicle id="0_186" depart="300.81" route="0_29" departSpeed="desired" departPos="free"/>
    <vehicle id="0_187" depart="302.43" route="0_36" departSpeed="desired" departPos="free"/>
    <vehicle id="0_188" depart="304.04" route="0_9" departSpeed="desired" departPos="free"/>
    <vehicle id="0_189" depart="305.66" route="0_12" departSpeed="desired" departPos="free"/>
    <vehicle id="0_190" depart="307.28" route="0_29" departSpeed="desired" departPos="free"/>
    <vehicle id="0_191" depart="308.89" route="0_28" departSpeed="desired" departPos="free"/>
    <vehicle id="0_192" depart="310.51" route="0_9" departSpeed="desired" departPos="free"/>
    <vehicle id="0_193" depart="312.13" route="0_31" departSpeed="desired" departPos="free"/>
    <vehicle id="0_194" depart="313.75" route="0_31" departSpeed="desired" departPos="free"/>
    <vehicle id="0_195" depart="315.36" route="0_29" departSpeed="desired" departPos="free"/>
    <vehicle id="0_196" depart="316.98" route="0_24" departSpeed="desired" departPos="free"/>
    <vehicle id="0_197" depart="318.60" route="0_24" departSpeed="desired" departPos="free"/>
    <vehicle id="0_198" depart="320.22" route="0_24" departSpeed="desired" departPos="free"/>
    <vehicle id="0_199" depart="321.83" route="0_24" departSpeed="desired" departPos="free"/>
    <vehicle id="0_200" depart="323.45" route="0_24" departSpeed="desired" departPos="free"/>
    <vehicle id="0_201" depart="325.07" route="0_9" departSpeed="desired" departPos="free"/>
    <vehicle id="0_202" depart="326.68" route="0_24" departSpeed="desired" departPos="free"/>
    <vehicle id="0_203" depart="328.30" route="0_24" departSpeed="desired" departPos="free"/>
    <vehicle id="0_204" depart="329.92" route="0_24" departSpeed="desired" departPos="free"/>
    <vehicle id="0_205" depart="331.54" route="0_46" departSpeed="desired" departPos="free"/>
    <vehicle id="0_206" depart="333.15" route="0_51" departSpeed="desired" departPos="free"/>
    <vehicle id="0_207" depart="334.77" route="0_9" departSpeed="desired" departPos="free"/>
    <vehicle id="0_208" depart="336.39" route="0_24" departSpeed="desired" departPos="free"/>
    <vehicle id="0_209" depart="338.01" route="0_24" departSpeed="desired" departPos="free"/>
    <vehicle id="0_210" depart="339.62" route="0_15" departSpeed="desired" departPos="free"/>
    <vehicle id="0_211" depart="341.24" route="0_24" departSpeed="desired" departPos="free"/>
    <vehicle id="0_212" depart="342.86" route="0_29" departSpeed="desired" departPos="free"/>
    <vehicle id="0_213" depart="344.47" route="0_29" departSpeed="desired" departPos="free"/>
    <vehicle id="0_214" depart="346.09" route="0_9" departSpeed="desired" departPos="free"/>
    <vehicle id="0_215" depart="347.71" route="0_24" departSpeed="desired" departPos="free"/>
    <vehicle id="0_216" depart="349.33" route="0_9" departSpeed="desired" departPos="free"/>
    <vehicle id="0_217" depart="350.94" route="0_9" departSpeed="desired" departPos="free"/>
    <vehicle id="0_218" depart="352.56" route="0_24" departSpeed="desired" departPos="free"/>
    <vehicle id="0_219" depart="354.18" route="0_31" departSpeed="desired" departPos="free"/>
    <vehicle id="0_220" depart="355.80" route="0_37" departSpeed="desired" departPos="free"/>
    <vehicle id="0_221" depart="357.41" route="0_9" departSpeed="desired" departPos="free"/>
    <vehicle id="0_222" depart="359.03" route="0_29" departSpeed="desired" departPos="free"/>
    <vehicle id="0_223" depart="360.65" route="0_36" departSpeed="desired" departPos="free"/>
    <vehicle id="0_224" depart="362.26" route="0_33" departSpeed="desired" departPos="free"/>
    <vehicle id="0_225" depart="363.88" route="0_24" departSpeed="desired" departPos="free"/>
    <vehicle id="0_226" depart="365.50" route="0_24" departSpeed="desired" departPos="free"/>
    <vehicle id="0_227" depart="367.12" route="0_29" departSpeed="desired" departPos="free"/>
    <vehicle id="0_228" depart="368.73" route="0_24" departSpeed="desired" departPos="free"/>
    <vehicle id="0_229" depart="370.35" route="0_24" departSpeed="desired" departPos="free"/>
    <vehicle id="0_230" depart="371.97" route="0_31" departSpeed="desired" departPos="free"/>
    <vehicle id="0_231" depart="373.58" route="0_9" departSpeed="desired" departPos="free"/>
    <vehicle id="0_232" depart="375.20" route="0_24" departSpeed="desired" departPos="free"/>
    <vehicle id="0_233" depart="376.82" route="0_24" departSpeed="desired" departPos="free"/>
    <vehicle id="0_234" depart="378.44" route="0_31" departSpeed="desired" departPos="free"/>
    <vehicle id="0_235" depart="380.05" route="0_24" departSpeed="desired" departPos="free"/>
    <vehicle id="0_236" depart="381.67" route="0_34" departSpeed="desired" departPos="free"/>
    <vehicle id="0_237" depart="383.29" route="0_24" departSpeed="desired" departPos="free"/>
    <vehicle id="0_238" depart="384.91" route="0_31" departSpeed="desired" departPos="free"/>
    <vehicle id="0_239" depart="386.52" route="0_24" departSpeed="desired" departPos="free"/>
    <vehicle id="0_240" depart="388.14" route="0_31" departSpeed="desired" departPos="free"/>
    <vehicle id="0_241" depart="389.76" route="0_24" departSpeed="desired" departPos="free"/>
    <vehicle id="0_242" depart="391.37" route="0_9" departSpeed="desired" departPos="free"/>
    <vehicle id="0_243" depart="392.99" route="0_31" departSpeed="desired" departPos="free"/>
    <vehicle id="0_244" depart="394.61" route="0_24" departSpeed="desired" departPos="free"/>
    <vehicle id="0_245" depart="396.23" route="0_9" departSpeed="desired" departPos="free"/>
    <vehicle id="0_246" depart="397.84" route="0_31" departSpeed="desired" departPos="free"/>
    <vehicle id="0_247" depart="399.46" route="0_25" departSpeed="desired" departPos="free"/>