<?xml version="1.0" encoding="UTF-8"?>
<!-- generated on 2021-04-26 17:08:20.320584 by $Id$ v1_8_0+1335-39b66c48f0
  options: -r /home/max/remote/airport-harper-sumo/sumo-xml/random-routes/validated.random.route.xml -t /home/max/remote/airport-harper-sumo/sumo-xml/route-sampler/route_sampler.in.xml -o /home/max/remote/airport-harper-sumo/sumo-xml/route-sampler/rl_route_sampler.route.xml <doubleminus>optimize full <doubleminus>write-route-ids -V -a departSpeed="max" type="vehDist" <doubleminus>threads 55
-->
<routes xmlns:xsi="http://www.w3.org/2001/XMLSchema-instance" xsi:noNamespaceSchemaLocation="http://sumo.dlr.de/xsd/routes_file.xsd">
<!-- begin="0.0" end="600.0" -->
    <route id="0_1" edges="gneE20 gneE23 115872656#8 115872656#9 115872656#10 115872656#10.14 115872656#11 115872656#11.5 gneE11 115872656#13.8"/> <!-- 1 -->
    <route id="0_2" edges="gneE20 gneE23 115872656#8 115872656#9 115872656#10 115872656#10.14 115872656#11 115872656#11.5 gneE11 gneE1 -8868160#0"/> <!-- 1 -->
    <route id="0_3" edges="gneE20 gneE23 115872656#8 115872656#9 115872656#10 115872656#10.14 638636924#1 638636924#1.8"/> <!-- 1 -->
    <route id="0_4" edges="gneE20 gneE23 115872656#8 115872656#9 115872656#10 gneE5 -660891910#1.13"/> <!-- 1 -->
    <route id="0_5" edges="gneE20 gneE23 115872656#8 115872656#9 gneE28"/> <!-- 1 -->
    <route id="0_7" edges="gneE9 834845345#9.4 834845345#12 gneE14"/> <!-- 1 -->
    <route id="0_8" edges="115872656#4 115872656#5 115872656#6 gneE10 -8867312#4.11"/> <!-- 9 -->
    <route id="0_9" edges="115872656#4 115872656#5 115872656#6 gneE22 gneE22.27 gneE23 115872656#8 115872656#9 115872656#10 115872656#10.14 115872656#11 115872656#11.5 gneE11 115872656#13.8"/> <!-- 77 -->
    <route id="0_10" edges="115872656#4 115872656#5 115872656#6 gneE22 gneE22.27 gneE23 115872656#8 115872656#9 115872656#10 115872656#10.14 115872656#11 115872656#11.5 gneE11 gneE1 -8868160#0"/> <!-- 5 -->
    <route id="0_11" edges="115872656#4 115872656#5 115872656#6 gneE22 gneE22.27 gneE23 115872656#8 115872656#9 115872656#10 115872656#10.14 638636924#1 638636924#1.8"/> <!-- 3 -->
    <route id="0_12" edges="115872656#4 115872656#5 115872656#6 gneE22 gneE22.27 gneE23 115872656#8 115872656#9 115872656#10 gneE5 -660891910#1.13"/> <!-- 3 -->
    <route id="0_13" edges="115872656#4 115872656#5 115872656#6 gneE22 gneE22.27 gneE23 115872656#8 115872656#9 gneE28"/> <!-- 2 -->
    <route id="0_15" edges="115872656#4 115872656#5 115872656#6 gneE22 gneE22.27 gneE26 8867312#6.18"/> <!-- 8 -->
    <route id="0_16" edges="660891910#1 660891910#1.19 638636924#1 638636924#1.8"/> <!-- 2 -->
    <route id="0_21" edges="660891910#1 gneE4 115872656#11.5 gneE11 115872656#13.8"/> <!-- 10 -->
    <route id="0_22" edges="660891910#1 gneE4 115872656#11.5 gneE11 gneE1 -8868160#0"/> <!-- 4 -->
    <route id="0_23" edges="834845345#1 834845345#1-AddedOffRampEdge 834845345#2 834845345#3.0 834845345#4-AddedOnRampEdge 834845345#4 834845345#5.74 834845345#5.74.43 -660891910#1 -660891910#1.13"/> <!-- 3 -->
    <route id="0_24" edges="834845345#1 834845345#1-AddedOffRampEdge 834845345#2 834845345#3.0 834845345#4-AddedOnRampEdge 834845345#4 834845345#5.74 834845345#5.74.43 834845345#6 834845345#6.23 834845345#7 834845345#8 834845345#8.20 834845345#8.108 834845345#9 834845345#9.4 834845345#12 gneE14"/> <!-- 116 -->
    <route id="0_25" edges="834845345#1 834845345#1-AddedOffRampEdge 834845345#2 834845345#3.0 834845345#4-AddedOnRampEdge 834845345#4 834845345#5.74 834845345#5.74.43 834845345#6 834845345#6.23 834845345#7 834845345#8 834845345#8.20 834845345#8.108 gneE19 -8867312#4.11"/> <!-- 1 -->
    <route id="0_26" edges="834845345#1 834845345#1-AddedOffRampEdge 834845345#2 834845345#3.0 834845345#4-AddedOnRampEdge 834845345#4 834845345#5.74 834845345#5.74.43 834845345#6 834845345#6.23 834845345#7 834845345#8 834845345#8.20 gneE8 8867312#6.18"/> <!-- 6 -->
    <route id="0_27" edges="834845345#1 834845345#1-AddedOffRampEdge 834845345#2 834845345#3.0 834845345#4-AddedOnRampEdge 834845345#4 834845345#5.74 834845345#5.74.43 834845345#6 gneE29"/> <!-- 2 -->
    <route id="0_28" edges="834845345#1 834845345#1-AddedOffRampEdge 834845345#2 834845345#3.0 834845345#4-AddedOnRampEdge 834845345#4 834845345#5.74 gneE2 638636924#1.8"/> <!-- 2 -->
    <route id="0_29" edges="834845345#1 834845345#1-AddedOffRampEdge 8884863 -8868160#0"/> <!-- 47 -->
    <route id="0_30" edges="8868160#0.7 Airport_to_US69 834845345#4-AddedOnRampEdge 834845345#4 834845345#5.74 834845345#5.74.43 -660891910#1 -660891910#1.13"/> <!-- 3 -->
    <route id="0_31" edges="8868160#0.7 Airport_to_US69 834845345#4-AddedOnRampEdge 834845345#4 834845345#5.74 834845345#5.74.43 834845345#6 834845345#6.23 834845345#7 834845345#8 834845345#8.20 834845345#8.108 834845345#9 834845345#9.4 834845345#12 gneE14"/> <!-- 23 -->
    <route id="0_32" edges="8868160#0.7 Airport_to_US69 834845345#4-AddedOnRampEdge 834845345#4 834845345#5.74 834845345#5.74.43 834845345#6 834845345#6.23 834845345#7 834845345#8 834845345#8.20 834845345#8.108 gneE19 -8867312#4.11"/> <!-- 1 -->
    <route id="0_33" edges="8868160#0.7 Airport_to_US69 834845345#4-AddedOnRampEdge 834845345#4 834845345#5.74 834845345#5.74.43 834845345#6 834845345#6.23 834845345#7 834845345#8 834845345#8.20 gneE8 8867312#6.18"/> <!-- 6 -->
    <route id="0_34" edges="8868160#0.7 Airport_to_US69 834845345#4-AddedOnRampEdge 834845345#4 834845345#5.74 834845345#5.74.43 834845345#6 gneE29"/> <!-- 2 -->
    <route id="0_35" edges="8868160#0.7 Airport_to_US69 834845345#4-AddedOnRampEdge 834845345#4 834845345#5.74 gneE2 638636924#1.8"/> <!-- 3 -->
    <route id="0_36" edges="8868160#0.7 gneE0.12 115872656#13.8"/> <!-- 5 -->
    <route id="0_37" edges="gneE13 gneE18 834845345#9 834845345#9.4 834845345#12 gneE14"/> <!-- 7 -->
    <route id="0_44" edges="gneE13 gneE18 gneE26 8867312#6.18"/> <!-- 4 -->
    <route id="0_45" edges="gneE17 -638636924#1.9 -660891910#1 -660891910#1.13"/> <!-- 2 -->
    <route id="0_46" edges="gneE17 -638636924#1.9 115872656#11 115872656#11.5 gneE11 115872656#13.8"/> <!-- 1 -->
    <route id="0_47" edges="gneE17 -638636924#1.9 115872656#11 115872656#11.5 gneE11 gneE1 -8868160#0"/> <!-- 1 -->
    <route id="0_48" edges="gneE17 -638636924#1.9 834845345#6 834845345#6.23 834845345#7 834845345#8 834845345#8.20 834845345#8.108 834845345#9 834845345#9.4 834845345#12 gneE14"/> <!-- 2 -->
    <route id="0_49" edges="gneE17 -638636924#1.9 834845345#6 834845345#6.23 834845345#7 834845345#8 834845345#8.20 834845345#8.108 gneE19 -8867312#4.11"/> <!-- 1 -->
    <route id="0_50" edges="gneE17 -638636924#1.9 834845345#6 834845345#6.23 834845345#7 834845345#8 834845345#8.20 gneE8 8867312#6.18"/> <!-- 2 -->
    <route id="0_51" edges="gneE17 -638636924#1.9 834845345#6 gneE29"/> <!-- 1 -->

    <vehicle id="0_0" depart="0.00" route="0_29" departSpeed="max" type="vehDist"/>
    <vehicle id="0_1" depart="1.62" route="0_29" departSpeed="max" type="vehDist"/>
    <vehicle id="0_2" depart="3.24" route="0_16" departSpeed="max" type="vehDist"/>
    <vehicle id="0_3" depart="4.86" route="0_23" departSpeed="max" type="vehDist"/>
    <vehicle id="0_4" depart="6.49" route="0_26" departSpeed="max" type="vehDist"/>
    <vehicle id="0_5" depart="8.11" route="0_21" departSpeed="max" type="vehDist"/>
    <vehicle id="0_6" depart="9.73" route="0_24" departSpeed="max" type="vehDist"/>
    <vehicle id="0_7" depart="11.35" route="0_35" departSpeed="max" type="vehDist"/>
    <vehicle id="0_8" depart="12.97" route="0_9" departSpeed="max" type="vehDist"/>
    <vehicle id="0_9" depart="14.59" route="0_33" departSpeed="max" type="vehDist"/>
    <vehicle id="0_10" depart="16.22" route="0_24" departSpeed="max" type="vehDist"/>
    <vehicle id="0_11" depart="17.84" route="0_9" departSpeed="max" type="vehDist"/>
    <vehicle id="0_12" depart="19.46" route="0_29" departSpeed="max" type="vehDist"/>
    <vehicle id="0_13" depart="21.08" route="0_24" departSpeed="max" type="vehDist"/>
    <vehicle id="0_14" depart="22.70" route="0_29" departSpeed="max" type="vehDist"/>
    <vehicle id="0_15" depart="24.32" route="0_29" departSpeed="max" type="vehDist"/>
    <vehicle id="0_16" depart="25.95" route="0_29" departSpeed="max" type="vehDist"/>
    <vehicle id="0_17" depart="27.57" route="0_31" departSpeed="max" type="vehDist"/>
    <vehicle id="0_18" depart="29.19" route="0_29" departSpeed="max" type="vehDist"/>
    <vehicle id="0_19" depart="30.81" route="0_24" departSpeed="max" type="vehDist"/>
    <vehicle id="0_20" depart="32.43" route="0_11" departSpeed="max" type="vehDist"/>
    <vehicle id="0_21" depart="34.05" route="0_15" departSpeed="max" type="vehDist"/>
    <vehicle id="0_22" depart="35.68" route="0_24" departSpeed="max" type="vehDist"/>
    <vehicle id="0_23" depart="37.30" route="0_9" departSpeed="max" type="vehDist"/>
    <vehicle id="0_24" depart="38.92" route="0_21" departSpeed="max" type="vehDist"/>
    <vehicle id="0_25" depart="40.54" route="0_24" departSpeed="max" type="vehDist"/>
    <vehicle id="0_26" depart="42.16" route="0_24" departSpeed="max" type="vehDist"/>
    <vehicle id="0_27" depart="43.78" route="0_24" departSpeed="max" type="vehDist"/>
    <vehicle id="0_28" depart="45.41" route="0_29" departSpeed="max" type="vehDist"/>
    <vehicle id="0_29" depart="47.03" route="0_24" departSpeed="max" type="vehDist"/>
    <vehicle id="0_30" depart="48.65" route="0_24" departSpeed="max" type="vehDist"/>
    <vehicle id="0_31" depart="50.27" route="0_22" departSpeed="max" type="vehDist"/>
    <vehicle id="0_32" depart="51.89" route="0_9" departSpeed="max" type="vehDist"/>
    <vehicle id="0_33" depart="53.51" route="0_8" departSpeed="max" type="vehDist"/>
    <vehicle id="0_34" depart="55.14" route="0_9" departSpeed="max" type="vehDist"/>
    <vehicle id="0_35" depart="56.76" route="0_9" departSpeed="max" type="vehDist"/>
    <vehicle id="0_36" depart="58.38" route="0_27" departSpeed="max" type="vehDist"/>
    <vehicle id="0_37" depart="60.00" route="0_24" departSpeed="max" type="vehDist"/>
    <vehicle id="0_38" depart="61.62" route="0_8" departSpeed="max" type="vehDist"/>
    <vehicle id="0_39" depart="63.24" route="0_9" departSpeed="max" type="vehDist"/>
    <vehicle id="0_40" depart="64.86" route="0_24" departSpeed="max" type="vehDist"/>
    <vehicle id="0_41" depart="66.49" route="0_9" departSpeed="max" type="vehDist"/>
    <vehicle id="0_42" depart="68.11" route="0_9" departSpeed="max" type="vehDist"/>
    <vehicle id="0_43" depart="69.73" route="0_9" departSpeed="max" type="vehDist"/>
    <vehicle id="0_44" depart="71.35" route="0_29" departSpeed="max" type="vehDist"/>
    <vehicle id="0_45" depart="72.97" route="0_9" departSpeed="max" type="vehDist"/>
    <vehicle id="0_46" depart="74.59" route="0_29" departSpeed="max" type="vehDist"/>
    <vehicle id="0_47" depart="76.22" route="0_9" departSpeed="max" type="vehDist"/>
    <vehicle id="0_48" depart="77.84" route="0_9" departSpeed="max" type="vehDist"/>
    <vehicle id="0_49" depart="79.46" route="0_24" departSpeed="max" type="vehDist"/>
    <vehicle id="0_50" depart="81.08" route="0_24" departSpeed="max" type="vehDist"/>
    <vehicle id="0_51" depart="82.70" route="0_24" departSpeed="max" type="vehDist"/>
    <vehicle id="0_52" depart="84.32" route="0_9" departSpeed="max" type="vehDist"/>
    <vehicle id="0_53" depart="85.95" route="0_29" departSpeed="max" type="vehDist"/>
    <vehicle id="0_54" depart="87.57" route="0_9" departSpeed="max" type="vehDist"/>
    <vehicle id="0_55" depart="89.19" route="0_9" departSpeed="max" type="vehDist"/>
    <vehicle id="0_56" depart="90.81" route="0_24" departSpeed="max" type="vehDist"/>
    <vehicle id="0_57" depart="92.43" route="0_29" departSpeed="max" type="vehDist"/>
    <vehicle id="0_58" depart="94.05" route="0_24" departSpeed="max" type="vehDist"/>
    <vehicle id="0_59" depart="95.68" route="0_9" departSpeed="max" type="vehDist"/>
    <vehicle id="0_60" depart="97.30" route="0_23" departSpeed="max" type="vehDist"/>
    <vehicle id="0_61" depart="98.92" route="0_24" departSpeed="max" type="vehDist"/>
    <vehicle id="0_62" depart="100.54" route="0_22" departSpeed="max" type="vehDist"/>
    <vehicle id="0_63" depart="102.16" route="0_29" departSpeed="max" type="vehDist"/>
    <vehicle id="0_64" depart="103.78" route="0_46" departSpeed="max" type="vehDist"/>
    <vehicle id="0_65" depart="105.41" route="0_24" departSpeed="max" type="vehDist"/>
    <vehicle id="0_66" depart="107.03" route="0_29" departSpeed="max" type="vehDist"/>
    <vehicle id="0_67" depart="108.65" route="0_29" departSpeed="max" type="vehDist"/>
    <vehicle id="0_68" depart="110.27" route="0_9" departSpeed="max" type="vehDist"/>
    <vehicle id="0_69" depart="111.89" route="0_9" departSpeed="max" type="vehDist"/>
    <vehicle id="0_70" depart="113.51" route="0_24" departSpeed="max" type="vehDist"/>
    <vehicle id="0_71" depart="115.14" route="0_11" departSpeed="max" type="vehDist"/>
    <vehicle id="0_72" depart="116.76" route="0_9" departSpeed="max" type="vehDist"/>
    <vehicle id="0_73" depart="118.38" route="0_31" departSpeed="max" type="vehDist"/>
    <vehicle id="0_74" depart="120.00" route="0_9" departSpeed="max" type="vehDist"/>
    <vehicle id="0_75" depart="121.62" route="0_29" departSpeed="max" type="vehDist"/>
    <vehicle id="0_76" depart="123.24" route="0_24" departSpeed="max" type="vehDist"/>
    <vehicle id="0_77" depart="124.86" route="0_29" departSpeed="max" type="vehDist"/>
    <vehicle id="0_78" depart="126.49" route="0_9" departSpeed="max" type="vehDist"/>
    <vehicle id="0_79" depart="128.11" route="0_9" departSpeed="max" type="vehDist"/>
    <vehicle id="0_80" depart="129.73" route="0_24" departSpeed="max" type="vehDist"/>
    <vehicle id="0_81" depart="131.35" route="0_24" departSpeed="max" type="vehDist"/>
    <vehicle id="0_82" depart="132.97" route="0_10" departSpeed="max" type="vehDist"/>
    <vehicle id="0_83" depart="134.59" route="0_31" departSpeed="max" type="vehDist"/>
    <vehicle id="0_84" depart="136.22" route="0_36" departSpeed="max" type="vehDist"/>
    <vehicle id="0_85" depart="137.84" route="0_10" departSpeed="max" type="vehDist"/>
    <vehicle id="0_86" depart="139.46" route="0_24" departSpeed="max" type="vehDist"/>
    <vehicle id="0_87" depart="141.08" route="0_8" departSpeed="max" type="vehDist"/>
    <vehicle id="0_88" depart="142.70" route="0_8" departSpeed="max" type="vehDist"/>
    <vehicle id="0_89" depart="144.32" route="0_28" departSpeed="max" type="vehDist"/>
    <vehicle id="0_90" depart="145.95" route="0_12" departSpeed="max" type="vehDist"/>
    <vehicle id="0_91" depart="147.57" route="0_33" departSpeed="max" type="vehDist"/>
    <vehicle id="0_92" depart="149.19" route="0_9" departSpeed="max" type="vehDist"/>
    <vehicle id="0_93" depart="150.81" route="0_9" departSpeed="max" type="vehDist"/>
    <vehicle id="0_94" depart="152.43" route="0_35" departSpeed="max" type="vehDist"/>
    <vehicle id="0_95" depart="154.05" route="0_24" departSpeed="max" type="vehDist"/>
    <vehicle id="0_96" depart="155.68" route="0_9" departSpeed="max" type="vehDist"/>
    <vehicle id="0_97" depart="157.30" route="0_51" departSpeed="max" type="vehDist"/>
    <vehicle id="0_98" depart="158.92" route="0_9" departSpeed="max" type="vehDist"/>
    <vehicle id="0_99" depart="160.54" route="0_21" departSpeed="max" type="vehDist"/>
    <vehicle id="0_100" depart="162.16" route="0_50" departSpeed="max" type="vehDist"/>
    <vehicle id="0_101" depart="163.78" route="0_10" departSpeed="max" type="vehDist"/>
    <vehicle id="0_102" depart="165.41" route="0_36" departSpeed="max" type="vehDist"/>
    <vehicle id="0_103" depart="167.03" route="0_37" departSpeed="max" type="vehDist"/>
    <vehicle id="0_104" depart="168.65" route="0_49" departSpeed="max" type="vehDist"/>
    <vehicle id="0_105" depart="170.27" route="0_24" departSpeed="max" type="vehDist"/>
    <vehicle id="0_106" depart="171.89" route="0_27" departSpeed="max" type="vehDist"/>
    <vehicle id="0_107" depart="173.51" route="0_24" departSpeed="max" type="vehDist"/>
    <vehicle id="0_108" depart="175.14" route="0_24" departSpeed="max" type="vehDist"/>
    <vehicle id="0_109" depart="176.76" route="0_9" departSpeed="max" type="vehDist"/>
    <vehicle id="0_110" depart="178.38" route="0_29" departSpeed="max" type="vehDist"/>
    <vehicle id="0_111" depart="180.00" route="0_24" departSpeed="max" type="vehDist"/>
    <vehicle id="0_112" depart="181.62" route="0_9" departSpeed="max" type="vehDist"/>
    <vehicle id="0_113" depart="183.24" route="0_31" departSpeed="max" type="vehDist"/>
    <vehicle id="0_114" depart="184.86" route="0_29" departSpeed="max" type="vehDist"/>
    <vehicle id="0_115" depart="186.49" route="0_2" departSpeed="max" type="vehDist"/>
    <vehicle id="0_116" depart="188.11" route="0_4" departSpeed="max" type="vehDist"/>
    <vehicle id="0_117" depart="189.73" route="0_33" departSpeed="max" type="vehDist"/>
    <vehicle id="0_118" depart="191.35" route="0_34" departSpeed="max" type="vehDist"/>
    <vehicle id="0_119" depart="192.97" route="0_9" departSpeed="max" type="vehDist"/>
    <vehicle id="0_120" depart="194.59" route="0_24" departSpeed="max" type="vehDist"/>
    <vehicle id="0_121" depart="196.22" route="0_24" departSpeed="max" type="vehDist"/>
    <vehicle id="0_122" depart="197.84" route="0_15" departSpeed="max" type="vehDist"/>
    <vehicle id="0_123" depart="199.46" route="0_1" departSpeed="max" type="vehDist"/>
    <vehicle id="0_124" depart="201.08" route="0_15" departSpeed="max" type="vehDist"/>
    <vehicle id="0_125" depart="202.70" route="0_9" departSpeed="max" type="vehDist"/>
    <vehicle id="0_126" depart="204.32" route="0_50" departSpeed="max" type="vehDist"/>
    <vehicle id="0_127" depart="205.95" route="0_44" departSpeed="max" type="vehDist"/>
    <vehicle id="0_128" depart="207.57" route="0_24" departSpeed="max" type="vehDist"/>
    <vehicle id="0_129" depart="209.19" route="0_9" departSpeed="max" type="vehDist"/>
    <vehicle id="0_130" depart="210.81" route="0_29" departSpeed="max" type="vehDist"/>
    <vehicle id="0_131" depart="212.43" route="0_8" departSpeed="max" type="vehDist"/>
    <vehicle id="0_132" depart="214.05" route="0_24" departSpeed="max" type="vehDist"/>
    <vehicle id="0_133" depart="215.68" route="0_36" departSpeed="max" type="vehDist"/>
    <vehicle id="0_134" depart="217.30" route="0_9" departSpeed="max" type="vehDist"/>
    <vehicle id="0_135" depart="218.92" route="0_15" departSpeed="max" type="vehDist"/>
    <vehicle id="0_136" depart="220.54" route="0_24" departSpeed="max" type="vehDist"/>
    <vehicle id="0_137" depart="222.16" route="0_24" departSpeed="max" type="vehDist"/>
    <vehicle id="0_138" depart="223.78" route="0_9" departSpeed="max" type="vehDist"/>
    <vehicle id="0_139" depart="225.41" route="0_10" departSpeed="max" type="vehDist"/>
    <vehicle id="0_140" depart="227.03" route="0_24" departSpeed="max" type="vehDist"/>
    <vehicle id="0_141" depart="228.65" route="0_44" departSpeed="max" type="vehDist"/>
    <vehicle id="0_142" depart="230.27" route="0_9" departSpeed="max" type="vehDist"/>
    <vehicle id="0_143" depart="231.89" route="0_9" departSpeed="max" type="vehDist"/>
    <vehicle id="0_144" depart="233.51" route="0_29" departSpeed="max" type="vehDist"/>
    <vehicle id="0_145" depart="235.14" route="0_24" departSpeed="max" type="vehDist"/>
    <vehicle id="0_146" depart="236.76" route="0_24" departSpeed="max" type="vehDist"/>
    <vehicle id="0_147" depart="238.38" route="0_9" departSpeed="max" type="vehDist"/>
    <vehicle id="0_148" depart="240.00" route="0_24" departSpeed="max" type="vehDist"/>
    <vehicle id="0_149" depart="241.62" route="0_32" departSpeed="max" type="vehDist"/>
    <vehicle id="0_150" depart="243.24" route="0_24" departSpeed="max" type="vehDist"/>
    <vehicle id="0_151" depart="244.86" route="0_29" departSpeed="max" type="vehDist"/>
    <vehicle id="0_152" depart="246.49" route="0_24" departSpeed="max" type="vehDist"/>
    <vehicle id="0_153" depart="248.11" route="0_9" departSpeed="max" type="vehDist"/>
    <vehicle id="0_154" depart="249.73" route="0_7" departSpeed="max" type="vehDist"/>
    <vehicle id="0_155" depart="251.35" route="0_31" departSpeed="max" type="vehDist"/>
    <vehicle id="0_156" depart="252.97" route="0_29" departSpeed="max" type="vehDist"/>
    <vehicle id="0_157" depart="254.59" route="0_9" departSpeed="max" type="vehDist"/>
    <vehicle id="0_158" depart="256.22" route="0_9" departSpeed="max" type="vehDist"/>
    <vehicle id="0_159" depart="257.84" route="0_9" departSpeed="max" type="vehDist"/>
    <vehicle id="0_160" depart="259.46" route="0_24" departSpeed="max" type="vehDist"/>
    <vehicle id="0_161" depart="261.08" route="0_21" departSpeed="max" type="vehDist"/>
    <vehicle id="0_162" depart="262.70" route="0_24" departSpeed="max" type="vehDist"/>
    <vehicle id="0_163" depart="264.32" route="0_24" departSpeed="max" type="vehDist"/>
    <vehicle id="0_164" depart="265.95" route="0_29" departSpeed="max" type="vehDist"/>
    <vehicle id="0_165" depart="267.57" route="0_15" departSpeed="max" type="vehDist"/>
    <vehicle id="0_166" depart="269.19" route="0_9" departSpeed="max" type="vehDist"/>
    <vehicle id="0_167" depart="270.81" route="0_9" departSpeed="max" type="vehDist"/>
    <vehicle id="0_168" depart="272.43" route="0_37" departSpeed="max" type="vehDist"/>
    <vehicle id="0_169" depart="274.05" route="0_9" departSpeed="max" type="vehDist"/>
    <vehicle id="0_170" depart="275.68" route="0_9" departSpeed="max" type="vehDist"/>
    <vehicle id="0_171" depart="277.30" route="0_9" departSpeed="max" type="vehDist"/>
    <vehicle id="0_172" depart="278.92" route="0_24" departSpeed="max" type="vehDist"/>
    <vehicle id="0_173" depart="280.54" route="0_9" departSpeed="max" type="vehDist"/>
    <vehicle id="0_174" depart="282.16" route="0_24" departSpeed="max" type="vehDist"/>
    <vehicle id="0_175" depart="283.78" route="0_9" departSpeed="max" type="vehDist"/>
    <vehicle id="0_176" depart="285.41" route="0_31" departSpeed="max" type="vehDist"/>
    <vehicle id="0_177" depart="287.03" route="0_24" departSpeed="max" type="vehDist"/>
    <vehicle id="0_178" depart="288.65" route="0_24" departSpeed="max" type="vehDist"/>
    <vehicle id="0_179" depart="290.27" route="0_9" departSpeed="max" type="vehDist"/>
    <vehicle id="0_180" depart="291.89" route="0_24" departSpeed="max" type="vehDist"/>
    <vehicle id="0_181" depart="293.51" route="0_12" departSpeed="max" type="vehDist"/>
    <vehicle id="0_182" depart="295.14" route="0_24" departSpeed="max" type="vehDist"/>
    <vehicle id="0_183" depart="296.76" route="0_5" departSpeed="max" type="vehDist"/>
    <vehicle id="0_184" depart="298.38" route="0_9" departSpeed="max" type="vehDist"/>
    <vehicle id="0_185" depart="300.00" route="0_29" departSpeed="max" type="vehDist"/>
    <vehicle id="0_186" depart="301.62" route="0_24" departSpeed="max" type="vehDist"/>
    <vehicle id="0_187" depart="303.24" route="0_24" departSpeed="max" type="vehDist"/>
    <vehicle id="0_188" depart="304.86" route="0_15" departSpeed="max" type="vehDist"/>
    <vehicle id="0_189" depart="306.49" route="0_29" departSpeed="max" type="vehDist"/>
    <vehicle id="0_190" depart="308.11" route="0_37" departSpeed="max" type="vehDist"/>
    <vehicle id="0_191" depart="309.73" route="0_9" departSpeed="max" type="vehDist"/>
    <vehicle id="0_192" depart="311.35" route="0_13" departSpeed="max" type="vehDist"/>
    <vehicle id="0_193" depart="312.97" route="0_37" departSpeed="max" type="vehDist"/>
    <vehicle id="0_194" depart="314.59" route="0_24" departSpeed="max" type="vehDist"/>
    <vehicle id="0_195" depart="316.22" route="0_9" departSpeed="max" type="vehDist"/>
    <vehicle id="0_196" depart="317.84" route="0_31" departSpeed="max" type="vehDist"/>
    <vehicle id="0_197" depart="319.46" route="0_29" departSpeed="max" type="vehDist"/>
    <vehicle id="0_198" depart="321.08" route="0_24" departSpeed="max" type="vehDist"/>
    <vehicle id="0_199" depart="322.70" route="0_24" departSpeed="max" type="vehDist"/>
    <vehicle id="0_200" depart="324.32" route="0_24" departSpeed="max" type="vehDist"/>
    <vehicle id="0_201" depart="325.95" route="0_24" departSpeed="max" type="vehDist"/>
    <vehicle id="0_202" depart="327.57" route="0_24" departSpeed="max" type="vehDist"/>
    <vehicle id="0_203" depart="329.19" route="0_24" departSpeed="max" type="vehDist"/>
    <vehicle id="0_204" depart="330.81" route="0_9" departSpeed="max" type="vehDist"/>
    <vehicle id="0_205" depart="332.43" route="0_24" departSpeed="max" type="vehDist"/>
    <vehicle id="0_206" depart="334.05" route="0_34" departSpeed="max" type="vehDist"/>
    <vehicle id="0_207" depart="335.68" route="0_24" departSpeed="max" type="vehDist"/>
    <vehicle id="0_208" depart="337.30" route="0_48" departSpeed="max" type="vehDist"/>
    <vehicle id="0_209" depart="338.92" route="0_24" departSpeed="max" type="vehDist"/>
    <vehicle id="0_210" depart="340.54" route="0_9" departSpeed="max" type="vehDist"/>
    <vehicle id="0_211" depart="342.16" route="0_24" departSpeed="max" type="vehDist"/>
    <vehicle id="0_212" depart="343.78" route="0_24" departSpeed="max" type="vehDist"/>
    <vehicle id="0_213" depart="345.41" route="0_16" departSpeed="max" type="vehDist"/>
    <vehicle id="0_214" depart="347.03" route="0_24" departSpeed="max" type="vehDist"/>
    <vehicle id="0_215" depart="348.65" route="0_48" departSpeed="max" type="vehDist"/>
    <vehicle id="0_216" depart="350.27" route="0_29" departSpeed="max" type="vehDist"/>
    <vehicle id="0_217" depart="351.89" route="0_29" departSpeed="max" type="vehDist"/>
    <vehicle id="0_218" depart="353.51" route="0_24" departSpeed="max" type="vehDist"/>
    <vehicle id="0_219" depart="355.14" route="0_28" departSpeed="max" type="vehDist"/>
    <vehicle id="0_220" depart="356.76" route="0_9" departSpeed="max" type="vehDist"/>
    <vehicle id="0_221" depart="358.38" route="0_24" departSpeed="max" type="vehDist"/>
    <vehicle id="0_222" depart="360.00" route="0_44" departSpeed="max" type="vehDist"/>
    <vehicle id="0_223" depart="361.62" route="0_26" departSpeed="max" type="vehDist"/>
    <vehicle id="0_224" depart="363.24" route="0_9" departSpeed="max" type="vehDist"/>
    <vehicle id="0_225" depart="364.86" route="0_29" departSpeed="max" type="vehDist"/>
    <vehicle id="0_226" depart="366.49" route="0_31" departSpeed="max" type="vehDist"/>
    <vehicle id="0_227" depart="368.11" route="0_33" departSpeed="max" type="vehDist"/>
    <vehicle id="0_228" depart="369.73" route="0_24" departSpeed="max" type="vehDist"/>
    <vehicle id="0_229" depart="371.35" route="0_24" departSpeed="max" type="vehDist"/>
    <vehicle id="0_230" depart="372.97" route="0_29" departSpeed="max" type="vehDist"/>
    <vehicle id="0_231" depart="374.59" route="0_24" departSpeed="max" type="vehDist"/>
    <vehicle id="0_232" depart="376.22" route="0_26" departSpeed="max" type="vehDist"/>
    <vehicle id="0_233" depart="377.84" route="0_24" departSpeed="max" type="vehDist"/>
    <vehicle id="0_234" depart="379.46" route="0_9" departSpeed="max" type="vehDist"/>
    <vehicle id="0_235" depart="381.08" route="0_24" departSpeed="max" type="vehDist"/>
    <vehicle id="0_236" depart="382.70" route="0_24" departSpeed="max" type="vehDist"/>
    <vehicle id="0_237" depart="384.32" route="0_31" departSpeed="max" type="vehDist"/>
    <vehicle id="0_238" depart="385.95" route="0_24" departSpeed="max" type="vehDist"/>
    <vehicle id="0_239" depart="387.57" route="0_21" departSpeed="max" type="vehDist"/>
    <vehicle id="0_240" depart="389.19" route="0_31" departSpeed="max" type="vehDist"/>
    <vehicle id="0_241" depart="390.81" route="0_31" departSpeed="max" type="vehDist"/>
    <vehicle id="0_242" depart="392.43" route="0_24" departSpeed="max" type="vehDist"/>
    <vehicle id="0_243" depart="394.05" route="0_31" departSpeed="max" type="vehDist"/>
    <vehicle id="0_244" depart="395.68" route="0_45" departSpeed="max" type="vehDist"/>
    <vehicle id="0_245" depart="397.30" route="0_9" departSpeed="max" type="vehDist"/>
    <vehicle id="0_246" depart="398.92" route="0_31" departSpeed="max" type="vehDist"/>
    <vehicle id="0_247" depart="400.54" route="0_24" departSpeed="max" type="vehDist"/>
    <vehicle id="0_248" depart="402.16" route="0_9" departSpeed="max" type="vehDist"/>
    <vehicle id="0_249" depart="403.78" route="0_25" departSpeed="max" type="vehDist"/>
    <vehicle id="0_250" depart="405.41" route="0_26" departSpeed="max" type="vehDist"/>
    <vehicle id="0_251" depart="407.03" route="0_31" departSpeed="max" type="vehDist"/>
    <vehicle id="0_252" depart="408.65" route="0_9" departSpeed="max" type="vehDist"/>
    <vehicle id="0_253" depart="410.27" route="0_21" departSpeed="max" type="vehDist"/>
    <vehicle id="0_254" depart="411.89" route="0_37" departSpeed="max" type="vehDist"/>
    <vehicle id="0_255" depart="413.51" route="0_9" departSpeed="max" type="vehDist"/>
    <vehicle id="0_256" depart="415.14" route="0_31" departSpeed="max" type="vehDist"/>
    <vehicle id="0_257" depart="416.76" route="0_9" departSpeed="max" type="vehDist"/>
    <vehicle id="0_258" depart="418.38" route="0_33" departSpeed="max" type="vehDist"/>
    <vehicle id="0_259" depart="420.00" route="0_24" departSpeed="max" type="vehDist"/>
    <vehicle id="0_260" depart="421.62" route="0_24" departSpeed="max" type="vehDist"/>
    <vehicle id="0_261" depart="423.24" route="0_9" departSpeed="max" type="vehDist"/>
    <vehicle id="0_262" depart="424.86" route="0_21" departSpeed="max" type="vehDist"/>
    <vehicle id="0_263" depart="426.49" route="0_29" departSpeed="max" type="vehDist"/>
    <vehicle id="0_264" depart="428.11" route="0_24" departSpeed="max" type="vehDist"/>
    <vehicle id="0_265" depart="429.73" route="0_24" departSpeed="max" type="vehDist"/>