<?xml version="1.0" ?>
<!--Generated Traffic Light Programs-->
<additional>
   <tlLogic id="63082002" offset="0" programID="63082002-1" type="static">
      <phase duration="73.80" state="yyyryy" sumoTime="69.3"/>
      <phase duration="2.00" state="rrrrrr" sumoTime="73.8"/>
      <phase duration="12.60" state="rrrGrr" sumoTime="75.8"/>
      <phase duration="3.50" state="rrryrr" sumoTime="88.4"/>
      <phase duration="1.00" state="rrrrrr" sumoTime="91.9"/>
      <phase duration="126.50" state="GGgrGG" sumoTime="92.9"/>
      <phase duration="4.50" state="yyyryy" sumoTime="219.4"/>
      <phase duration="2.00" state="rrrrrr" sumoTime="223.9"/>
      <phase duration="12.80" state="rrrGrr" sumoTime="225.9"/>
      <phase duration="3.50" state="rrryrr" sumoTime="238.7"/>
      <phase duration="1.00" state="rrrrrr" sumoTime="242.2"/>
      <phase duration="14.00" state="GGGrrr" sumoTime="243.2"/>
      <phase duration="3.50" state="GGyrrr" sumoTime="257.2"/>
      <phase duration="1.00" state="GGrrrr" sumoTime="260.7"/>
      <phase duration="107.70" state="GGgrGG" sumoTime="261.7"/>
      <phase duration="4.50" state="yyyryy" sumoTime="369.4"/>
      <phase duration="2.00" state="rrrrrr" sumoTime="373.9"/>
      <phase duration="19.60" state="rrrGrr" sumoTime="375.9"/>
      <phase duration="3.50" state="rrryrr" sumoTime="395.5"/>
      <phase duration="1.00" state="rrrrrr" sumoTime="399.0"/>
      <phase duration="9.70" state="GGGrrr" sumoTime="400.0"/>
      <phase duration="3.50" state="GGyrrr" sumoTime="409.7"/>
      <phase duration="1.00" state="GGrrrr" sumoTime="413.2"/>
      <phase duration="105.20" state="GGgrGG" sumoTime="414.2"/>
      <phase duration="4.50" state="yyyryy" sumoTime="519.4"/>
      <phase duration="2.00" state="rrrrrr" sumoTime="523.9"/>
      <phase duration="13.30" state="rrrGrr" sumoTime="525.9"/>
      <phase duration="3.50" state="rrryrr" sumoTime="539.2"/>
      <phase duration="1.00" state="rrrrrr" sumoTime="542.7"/>
      <phase duration="125.80" state="GGgrGG" sumoTime="543.7"/>
      <phase duration="4.50" state="yyyryy" sumoTime="669.5"/>
      <phase duration="2.00" state="rrrrrr" sumoTime="674.0"/>
      <phase duration="19.60" state="rrrGrr" sumoTime="676.0"/>
      <phase duration="3.50" state="rrryrr" sumoTime="695.6"/>
      <phase duration="1.00" state="rrrrrr" sumoTime="699.1"/>
      <phase duration="119.40" state="GGgrGG" sumoTime="700.1"/>
      <phase duration="4.50" state="yyyryy" sumoTime="819.5"/>
      <phase duration="2.00" state="rrrrrr" sumoTime="824.0"/>
      <phase duration="20.40" state="rrrGrr" sumoTime="826.0"/>
      <phase duration="3.50" state="rrryrr" sumoTime="846.4"/>
      <phase duration="1.00" state="rrrrrr" sumoTime="849.9"/>
      <phase duration="15.60" state="GGGrrr" sumoTime="850.9"/>
      <phase duration="3.50" state="GGyrrr" sumoTime="866.5"/>
      <phase duration="1.00" state="GGrrrr" sumoTime="870.0"/>
      <phase duration="98.50" state="GGgrGG" sumoTime="871.0"/>
      <phase duration="4.50" state="yyyryy" sumoTime="969.5"/>
      <phase duration="2.00" state="rrrrrr" sumoTime="974.0"/>
      <phase duration="11.40" state="rrrGrr" sumoTime="976.0"/>
      <phase duration="3.50" state="rrryrr" sumoTime="987.4"/>
      <phase duration="1.00" state="rrrrrr" sumoTime="990.9"/>
      <phase duration="7.10" state="GGGrrr" sumoTime="991.9"/>
      <phase duration="3.50" state="GGyrrr" sumoTime="999.0"/>
      <phase duration="1.00" state="GGrrrr" sumoTime="1002.5"/>
      <phase duration="116.10" state="GGgrGG" sumoTime="1003.5"/>
      <phase duration="4.50" state="yyyryy" sumoTime="1119.6"/>
      <phase duration="2.00" state="rrrrrr" sumoTime="1124.1"/>
      <phase duration="7.10" state="rrrGrr" sumoTime="1126.1"/>
      <phase duration="3.50" state="rrryrr" sumoTime="1133.2"/>
      <phase duration="1.00" state="rrrrrr" sumoTime="1136.7"/>
      <phase duration="131.90" state="GGgrGG" sumoTime="1137.7"/>
      <phase duration="4.50" state="yyyryy" sumoTime="1269.6"/>
      <phase duration="2.00" state="rrrrrr" sumoTime="1274.1"/>
      <phase duration="11.40" state="rrrGrr" sumoTime="1276.1"/>
      <phase duration="3.50" state="rrryrr" sumoTime="1287.5"/>
      <phase duration="1.00" state="rrrrrr" sumoTime="1291.0"/>
      <phase duration="127.60" state="GGgrGG" sumoTime="1292.0"/>
      <phase duration="4.50" state="yyyryy" sumoTime="1419.6"/>
      <phase duration="2.00" state="rrrrrr" sumoTime="1424.1"/>
      <phase duration="8.10" state="rrrGrr" sumoTime="1426.1"/>
      <phase duration="3.50" state="rrryrr" sumoTime="1434.2"/>
      <phase duration="1.00" state="rrrrrr" sumoTime="1437.7"/>
      <phase duration="131.00" state="GGgrGG" sumoTime="1438.7"/>
      <phase duration="4.50" state="yyyryy" sumoTime="1569.7"/>
      <phase duration="2.00" state="rrrrrr" sumoTime="1574.2"/>
      <phase duration="21.30" state="rrrGrr" sumoTime="1576.2"/>
      <phase duration="3.50" state="rrryrr" sumoTime="1597.5"/>
      <phase duration="1.00" state="rrrrrr" sumoTime="1601.0"/>
      <phase duration="117.70" state="GGgrGG" sumoTime="1602.0"/>
      <phase duration="4.50" state="yyyryy" sumoTime="1719.7"/>
      <phase duration="2.00" state="rrrrrr" sumoTime="1724.2"/>
      <phase duration="8.20" state="rrrGrr" sumoTime="1726.2"/>
      <phase duration="3.50" state="rrryrr" sumoTime="1734.4"/>
      <phase duration="1.00" state="rrrrrr" sumoTime="1737.9"/>
      <phase duration="11.40" state="GGGrrr" sumoTime="1738.9"/>
      <phase duration="3.40" state="GGyrrr" sumoTime="1750.3"/>
      <phase duration="1.00" state="GGrrrr" sumoTime="1753.7"/>
      <phase duration="114.90" state="GGgrGG" sumoTime="1754.7"/>
      <phase duration="4.50" state="yyyryy" sumoTime="1869.6"/>
      <phase duration="2.00" state="rrrrrr" sumoTime="1874.1"/>
      <phase duration="8.60" state="rrrGrr" sumoTime="1876.1"/>
      <phase duration="3.50" state="rrryrr" sumoTime="1884.7"/>
      <phase duration="1.00" state="rrrrrr" sumoTime="1888.2"/>
      <phase duration="7.10" state="GGGrrr" sumoTime="1889.2"/>
      <phase duration="3.50" state="GGyrrr" sumoTime="1896.3"/>
      <phase duration="1.00" state="GGrrrr" sumoTime="1899.8"/>
      <phase duration="118.80" state="GGgrGG" sumoTime="1900.8"/>
      <phase duration="4.50" state="yyyryy" sumoTime="2019.6"/>
      <phase duration="2.00" state="rrrrrr" sumoTime="2024.1"/>
      <phase duration="16.10" state="rrrGrr" sumoTime="2026.1"/>
      <phase duration="3.50" state="rrryrr" sumoTime="2042.2"/>
      <phase duration="1.00" state="rrrrrr" sumoTime="2045.7"/>
      <phase duration="122.90" state="GGgrGG" sumoTime="2046.7"/>
      <phase duration="4.50" state="yyyryy" sumoTime="2169.6"/>
      <phase duration="2.00" state="rrrrrr" sumoTime="2174.1"/>
      <phase duration="7.80" state="rrrGrr" sumoTime="2176.1"/>
      <phase duration="3.50" state="rrryrr" sumoTime="2183.9"/>
      <phase duration="1.00" state="rrrrrr" sumoTime="2187.4"/>
      <phase duration="131.20" state="GGgrGG" sumoTime="2188.4"/>
      <phase duration="4.50" state="yyyryy" sumoTime="2319.6"/>
      <phase duration="2.00" state="rrrrrr" sumoTime="2324.1"/>
      <phase duration="11.20" state="rrrGrr" sumoTime="2326.1"/>
      <phase duration="3.50" state="rrryrr" sumoTime="2337.3"/>
      <phase duration="1.00" state="rrrrrr" sumoTime="2340.8"/>
      <phase duration="15.60" state="GGGrrr" sumoTime="2341.8"/>
      <phase duration="3.50" state="GGyrrr" sumoTime="2357.4"/>
      <phase duration="1.00" state="GGrrrr" sumoTime="2360.9"/>
      <phase duration="257.70" state="GGgrGG" sumoTime="2361.9"/>
      <phase duration="4.50" state="yyyryy" sumoTime="2619.6"/>
      <phase duration="2.00" state="rrrrrr" sumoTime="2624.1"/>
      <phase duration="21.20" state="rrrGrr" sumoTime="2626.1"/>
      <phase duration="3.50" state="rrryrr" sumoTime="2647.3"/>
      <phase duration="1.00" state="rrrrrr" sumoTime="2650.8"/>
      <phase duration="117.80" state="GGgrGG" sumoTime="2651.8"/>
      <phase duration="4.50" state="yyyryy" sumoTime="2769.6"/>
      <phase duration="2.00" state="rrrrrr" sumoTime="2774.1"/>
      <phase duration="16.70" state="rrrGrr" sumoTime="2776.1"/>
      <phase duration="3.50" state="rrryrr" sumoTime="2792.8"/>
      <phase duration="1.00" state="rrrrrr" sumoTime="2796.3"/>
      <phase duration="10.50" state="GGGrrr" sumoTime="2797.3"/>
      <phase duration="3.50" state="GGyrrr" sumoTime="2807.8"/>
      <phase duration="1.00" state="GGrrrr" sumoTime="2811.3"/>
      <phase duration="107.30" state="GGgrGG" sumoTime="2812.3"/>
      <phase duration="4.50" state="yyyryy" sumoTime="2919.6"/>
      <phase duration="2.00" state="rrrrrr" sumoTime="2924.1"/>
      <phase duration="13.10" state="rrrGrr" sumoTime="2926.1"/>
      <phase duration="3.50" state="rrryrr" sumoTime="2939.2"/>
      <phase duration="1.00" state="rrrrrr" sumoTime="2942.7"/>
      <phase duration="15.60" state="GGGrrr" sumoTime="2943.7"/>
      <phase duration="3.50" state="GGyrrr" sumoTime="2959.3"/>
      <phase duration="1.00" state="GGrrrr" sumoTime="2962.8"/>
      <phase duration="105.80" state="GGgrGG" sumoTime="2963.8"/>
      <phase duration="4.50" state="yyyryy" sumoTime="3069.6"/>
      <phase duration="2.00" state="rrrrrr" sumoTime="3074.1"/>
      <phase duration="17.40" state="rrrGrr" sumoTime="3076.1"/>
      <phase duration="3.50" state="rrryrr" sumoTime="3093.5"/>
      <phase duration="1.00" state="rrrrrr" sumoTime="3097.0"/>
      <phase duration="121.60" state="GGgrGG" sumoTime="3098.0"/>
      <phase duration="4.50" state="yyyryy" sumoTime="3219.6"/>
      <phase duration="2.00" state="rrrrrr" sumoTime="3224.1"/>
      <phase duration="7.40" state="rrrGrr" sumoTime="3226.1"/>
      <phase duration="3.50" state="rrryrr" sumoTime="3233.5"/>
      <phase duration="1.00" state="rrrrrr" sumoTime="3237.0"/>
      <phase duration="131.60" state="GGgrGG" sumoTime="3238.0"/>
      <phase duration="4.50" state="yyyryy" sumoTime="3369.6"/>
      <phase duration="2.00" state="rrrrrr" sumoTime="3374.1"/>
      <phase duration="19.40" state="rrrGrr" sumoTime="3376.1"/>
      <phase duration="3.50" state="rrryrr" sumoTime="3395.5"/>
      <phase duration="1.00" state="rrrrrr" sumoTime="3399.0"/>
      <phase duration="15.10" state="GGGrrr" sumoTime="3400.0"/>
      <phase duration="3.50" state="GGyrrr" sumoTime="3415.1"/>
      <phase duration="1.00" state="GGrrrr" sumoTime="3418.6"/>
      <phase duration="100.00" state="GGgrGG" sumoTime="3419.6"/>
      <phase duration="4.50" state="yyyryy" sumoTime="3519.6"/>
      <phase duration="2.00" state="rrrrrr" sumoTime="3524.1"/>
      <phase duration="21.50" state="rrrGrr" sumoTime="3526.1"/>
      <phase duration="3.50" state="rrryrr" sumoTime="3547.6"/>
      <phase duration="1.00" state="rrrrrr" sumoTime="3551.1"/>
      <phase duration="9.20" state="GGGrrr" sumoTime="3552.1"/>
      <phase duration="3.50" state="GGyrrr" sumoTime="3561.3"/>
      <phase duration="1.00" state="GGrrrr" sumoTime="3564.8"/>
      <phase duration="103.80" state="GGgrGG" sumoTime="3565.8"/>
      <phase duration="4.50" state="yyyryy" sumoTime="3669.6"/>
      <phase duration="2.00" state="rrrrrr" sumoTime="3674.1"/>
      <phase duration="11.00" state="rrrGrr" sumoTime="3676.1"/>
      <phase duration="3.50" state="rrryrr" sumoTime="3687.1"/>
      <phase duration="1.00" state="rrrrrr" sumoTime="3690.6"/>
      <phase duration="128.00" state="GGgrGG" sumoTime="3691.6"/>
      <phase duration="4.50" state="yyyryy" sumoTime="3819.6"/>
      <phase duration="2.10" state="rrrrrr" sumoTime="3824.1"/>
      <phase duration="24.00" state="rrrGrr" sumoTime="3826.2"/>
      <phase duration="3.50" state="rrryrr" sumoTime="3850.2"/>
      <phase duration="1.00" state="rrrrrr" sumoTime="3853.7"/>
      <phase duration="9.60" state="GGGrrr" sumoTime="3854.7"/>
      <phase duration="3.50" state="GGyrrr" sumoTime="3864.3"/>
      <phase duration="1.00" state="GGrrrr" sumoTime="3867.8"/>
      <phase duration="100.90" state="GGgrGG" sumoTime="3868.8"/>
      <phase duration="4.50" state="yyyryy" sumoTime="3969.7"/>
      <phase duration="2.00" state="rrrrrr" sumoTime="3974.2"/>
      <phase duration="12.10" state="rrrGrr" sumoTime="3976.2"/>
      <phase duration="3.50" state="rrryrr" sumoTime="3988.3"/>
      <phase duration="1.00" state="rrrrrr" sumoTime="3991.8"/>
      <phase duration="7.40" state="GGGrrr" sumoTime="3992.8"/>
      <phase duration="3.50" state="GGyrrr" sumoTime="4000.2"/>
      <phase duration="1.00" state="GGrrrr" sumoTime="4003.7"/>
      <phase duration="115.00" state="GGgrGG" sumoTime="4004.7"/>
      <phase duration="4.50" state="yyyryy" sumoTime="4119.7"/>
      <phase duration="2.00" state="rrrrrr" sumoTime="4124.2"/>
      <phase duration="12.60" state="rrrGrr" sumoTime="4126.2"/>
      <phase duration="3.50" state="rrryrr" sumoTime="4138.8"/>
      <phase duration="1.00" state="rrrrrr" sumoTime="4142.3"/>
      <phase duration="13.60" state="GGGrrr" sumoTime="4143.3"/>
      <phase duration="3.50" state="GGyrrr" sumoTime="4156.9"/>
      <phase duration="1.00" state="GGrrrr" sumoTime="4160.4"/>
      <phase duration="258.30" state="GGgrGG" sumoTime="4161.4"/>
      <phase duration="4.50" state="yyyryy" sumoTime="4419.7"/>
      <phase duration="2.00" state="rrrrrr" sumoTime="4424.2"/>
      <phase duration="9.70" state="rrrGrr" sumoTime="4426.2"/>
      <phase duration="3.50" state="rrryrr" sumoTime="4435.9"/>
      <phase duration="1.00" state="rrrrrr" sumoTime="4439.4"/>
      <phase duration="129.30" state="GGgrGG" sumoTime="4440.4"/>
      <phase duration="4.50" state="yyyryy" sumoTime="4569.7"/>
      <phase duration="2.00" state="rrrrrr" sumoTime="4574.2"/>
      <phase duration="13.30" state="rrrGrr" sumoTime="4576.2"/>
      <phase duration="3.50" state="rrryrr" sumoTime="4589.5"/>
      <phase duration="1.00" state="rrrrrr" sumoTime="4593.0"/>
      <phase duration="6.70" state="GGGrrr" sumoTime="4594.0"/>
      <phase duration="3.50" state="GGyrrr" sumoTime="4600.7"/>
      <phase duration="1.00" state="GGrrrr" sumoTime="4604.2"/>
      <phase duration="114.60" state="GGgrGG" sumoTime="4605.2"/>
      <phase duration="4.50" state="yyyryy" sumoTime="4719.8"/>
      <phase duration="2.00" state="rrrrrr" sumoTime="4724.3"/>
      <phase duration="7.80" state="rrrGrr" sumoTime="4726.3"/>
      <phase duration="3.50" state="rrryrr" sumoTime="4734.1"/>
      <phase duration="1.00" state="rrrrrr" sumoTime="4737.6"/>
      <phase duration="131.20" state="GGgrGG" sumoTime="4738.6"/>
      <phase duration="4.50" state="yyyryy" sumoTime="4869.8"/>
      <phase duration="2.00" state="rrrrrr" sumoTime="4874.3"/>
      <phase duration="13.30" state="rrrGrr" sumoTime="4876.3"/>
      <phase duration="3.50" state="rrryrr" sumoTime="4889.6"/>
      <phase duration="1.00" state="rrrrrr" sumoTime="4893.1"/>
      <phase duration="13.10" state="GGGrrr" sumoTime="4894.1"/>
      <phase duration="3.50" state="GGyrrr" sumoTime="4907.2"/>
      <phase duration="1.00" state="GGrrrr" sumoTime="4910.7"/>
      <phase duration="108.10" state="GGgrGG" sumoTime="4911.7"/>
      <phase duration="4.50" state="yyyryy" sumoTime="5019.8"/>
      <phase duration="2.00" state="rrrrrr" sumoTime="5024.3"/>
      <phase duration="11.70" state="rrrGrr" sumoTime="5026.3"/>
      <phase duration="3.50" state="rrryrr" sumoTime="5038.0"/>
      <phase duration="1.00" state="rrrrrr" sumoTime="5041.5"/>
      <phase duration="11.50" state="GGGrrr" sumoTime="5042.5"/>
      <phase duration="3.50" state="GGyrrr" sumoTime="5054.0"/>
      <phase duration="1.00" state="GGrrrr" sumoTime="5057.5"/>
      <phase duration="118.00" state="GGgrGG" sumoTime="5058.5"/>
      <phase duration="4.50" state="yyyryy" sumoTime="5176.5"/>
      <phase duration="2.00" state="rrrrrr" sumoTime="5181.0"/>
      <phase duration="7.70" state="rrrGrr" sumoTime="5183.0"/>
      <phase duration="3.50" state="rrryrr" sumoTime="5190.7"/>
      <phase duration="1.00" state="rrrrrr" sumoTime="5194.2"/>
      <phase duration="12.50" state="GGGrrr" sumoTime="5195.2"/>
      <phase duration="3.50" state="GGyrrr" sumoTime="5207.7"/>
      <phase duration="1.00" state="GGrrrr" sumoTime="5211.2"/>
      <phase duration="107.60" state="GGgrGG" sumoTime="5212.2"/>
      <phase duration="4.50" state="yyyryy" sumoTime="5319.8"/>
      <phase duration="2.00" state="rrrrrr" sumoTime="5324.3"/>
      <phase duration="10.40" state="rrrGrr" sumoTime="5326.3"/>
      <phase duration="3.50" state="rrryrr" sumoTime="5336.7"/>
      <phase duration="1.00" state="rrrrrr" sumoTime="5340.2"/>
      <phase duration="128.60" state="GGgrGG" sumoTime="5341.2"/>
      <phase duration="4.50" state="yyyryy" sumoTime="5469.8"/>
      <phase duration="2.00" state="rrrrrr" sumoTime="5474.3"/>
      <phase duration="12.40" state="rrrGrr" sumoTime="5476.3"/>
      <phase duration="3.50" state="rrryrr" sumoTime="5488.7"/>
      <phase duration="1.00" state="rrrrrr" sumoTime="5492.2"/>
      <phase duration="11.60" state="GGGrrr" sumoTime="5493.2"/>
      <phase duration="3.50" state="GGyrrr" sumoTime="5504.8"/>
      <phase duration="1.00" state="GGrrrr" sumoTime="5508.3"/>
      <phase duration="110.60" state="GGgrGG" sumoTime="5509.3"/>
      <phase duration="4.50" state="yyyryy" sumoTime="5619.9"/>
      <phase duration="2.00" state="rrrrrr" sumoTime="5624.4"/>
      <phase duration="10.30" state="rrrGrr" sumoTime="5626.4"/>
      <phase duration="3.50" state="rrryrr" sumoTime="5636.7"/>
      <phase duration="1.00" state="rrrrrr" sumoTime="5640.2"/>
      <phase duration="128.60" state="GGgrGG" sumoTime="5641.2"/>
      <phase duration="4.50" state="yyyryy" sumoTime="5769.8"/>
      <phase duration="2.00" state="rrrrrr" sumoTime="5774.3"/>
      <phase duration="17.80" state="rrrGrr" sumoTime="5776.3"/>
      <phase duration="3.50" state="rrryrr" sumoTime="5794.1"/>
      <phase duration="1.00" state="rrrrrr" sumoTime="5797.6"/>
      <phase duration="121.30" state="GGgrGG" sumoTime="5798.6"/>
      <phase duration="4.50" state="yyyryy" sumoTime="5919.9"/>
      <phase duration="2.00" state="rrrrrr" sumoTime="5924.4"/>
      <phase duration="12.40" state="rrrGrr" sumoTime="5926.4"/>
      <phase duration="3.50" state="rrryrr" sumoTime="5938.8"/>
      <phase duration="1.00" state="rrrrrr" sumoTime="5942.3"/>
      <phase duration="148.30" state="GGgrGG" sumoTime="5943.3"/>
      <phase duration="4.50" state="yyyryy" sumoTime="6091.6"/>
      <phase duration="2.00" state="rrrrrr" sumoTime="6096.1"/>
      <phase duration="8.80" state="rrrGrr" sumoTime="6098.1"/>
      <phase duration="3.50" state="rrryrr" sumoTime="6106.9"/>
      <phase duration="1.00" state="rrrrrr" sumoTime="6110.4"/>
      <phase duration="10.00" state="GGGrrr" sumoTime="6111.4"/>
      <phase duration="3.40" state="GGyrrr" sumoTime="6121.4"/>
      <phase duration="1.00" state="GGrrrr" sumoTime="6124.8"/>
      <phase duration="94.00" state="GGgrGG" sumoTime="6125.8"/>
      <phase duration="4.50" state="yyyryy" sumoTime="6219.8"/>
      <phase duration="2.00" state="rrrrrr" sumoTime="6224.3"/>
      <phase duration="21.10" state="rrrGrr" sumoTime="6226.3"/>
      <phase duration="3.50" state="rrryrr" sumoTime="6247.4"/>
      <phase duration="1.00" state="rrrrrr" sumoTime="6250.9"/>
      <phase duration="117.90" state="GGgrGG" sumoTime="6251.9"/>
      <phase duration="4.50" state="yyyryy" sumoTime="6369.8"/>
      <phase duration="2.00" state="rrrrrr" sumoTime="6374.3"/>
      <phase duration="17.20" state="rrrGrr" sumoTime="6376.3"/>
      <phase duration="3.50" state="rrryrr" sumoTime="6393.5"/>
      <phase duration="1.00" state="rrrrrr" sumoTime="6397.0"/>
   </tlLogic>
   <tlLogic id="63082003" offset="0" programID="63082003-1" type="static">
      <phase duration="83.70" state="yyysrryyyrr" sumoTime="79.2"/>
      <phase duration="2.00" state="rrrsrrrrrrr" sumoTime="83.7"/>
      <phase duration="8.00" state="rrrGGGrrrrg" sumoTime="85.7"/>
      <phase duration="3.50" state="rrryyyrrrrg" sumoTime="93.7"/>
      <phase duration="1.00" state="rrrsrrrrrrg" sumoTime="97.2"/>
      <phase duration="146.00" state="GGgsrrGGgrr" sumoTime="98.2"/>
      <phase duration="4.50" state="yyysrryyyrr" sumoTime="244.2"/>
      <phase duration="2.00" state="rrrsrrrrrrr" sumoTime="248.7"/>
      <phase duration="9.10" state="rrrGGgrrrGg" sumoTime="250.7"/>
      <phase duration="3.50" state="rrryyyrrryy" sumoTime="259.8"/>
      <phase duration="1.00" state="rrrsrrrrrrr" sumoTime="263.3"/>
      <phase duration="115.00" state="GGgsrrGGgrr" sumoTime="264.3"/>
      <phase duration="4.50" state="yyysrryyyrr" sumoTime="379.3"/>
      <phase duration="2.00" state="rrrsrrrrrrr" sumoTime="383.8"/>
      <phase duration="8.00" state="rrrGGGrrrrr" sumoTime="385.8"/>
      <phase duration="3.50" state="rrryyyrrrrr" sumoTime="393.8"/>
      <phase duration="1.00" state="rrrsrrrrrrr" sumoTime="397.3"/>
      <phase duration="6.00" state="rrrsrrGGGrr" sumoTime="398.3"/>
      <phase duration="3.50" state="rrrsrrGGyrr" sumoTime="404.3"/>
      <phase duration="1.00" state="rrrsrrGGrrr" sumoTime="407.8"/>
      <phase duration="120.50" state="GGgsrrGGgrr" sumoTime="408.8"/>
      <phase duration="4.50" state="yyysrryyyrr" sumoTime="529.3"/>
      <phase duration="2.00" state="rrrsrrrrrrr" sumoTime="533.8"/>
      <phase duration="9.10" state="rrrGGGrrrrr" sumoTime="535.8"/>
      <phase duration="3.50" state="rrryyyrrrrr" sumoTime="544.9"/>
      <phase duration="1.00" state="rrrsrrrrrrr" sumoTime="548.4"/>
      <phase duration="6.70" state="rrrsrrGGGrr" sumoTime="549.4"/>
      <phase duration="3.50" state="rrrsrrGGyrr" sumoTime="556.1"/>
      <phase duration="1.00" state="rrrsrrGGrrr" sumoTime="559.6"/>
      <phase duration="118.70" state="GGgsrrGGgrr" sumoTime="560.6"/>
      <phase duration="4.50" state="yyysrryyyrr" sumoTime="679.3"/>
      <phase duration="2.00" state="rrrsrrrrrrr" sumoTime="683.8"/>
      <phase duration="10.10" state="rrrsrGrrrrG" sumoTime="685.8"/>
      <phase duration="3.50" state="rrrsryrrrry" sumoTime="695.9"/>
      <phase duration="1.00" state="rrrsrrrrrrr" sumoTime="699.4"/>
      <phase duration="129.00" state="GGgsrrGGgrr" sumoTime="700.4"/>
      <phase duration="4.50" state="yyysrryyyrr" sumoTime="829.4"/>
      <phase duration="2.00" state="rrrsrrrrrrr" sumoTime="833.9"/>
      <phase duration="8.00" state="rrrGGGrrrrr" sumoTime="835.9"/>
      <phase duration="3.50" state="rrryyyrrrrr" sumoTime="843.9"/>
      <phase duration="1.00" state="rrrsrrrrrrr" sumoTime="847.4"/>
      <phase duration="131.00" state="GGgsrrGGgrr" sumoTime="848.4"/>
      <phase duration="4.50" state="yyysrryyyrr" sumoTime="979.4"/>
      <phase duration="2.00" state="rrrsrrrrrrr" sumoTime="983.9"/>
      <phase duration="8.00" state="rrrsrrrrrGG" sumoTime="985.9"/>
      <phase duration="3.50" state="rrrsrrrrryy" sumoTime="993.9"/>
      <phase duration="1.00" state="rrrsrrrrrrr" sumoTime="997.4"/>
      <phase duration="6.80" state="rrrsrrGGGrr" sumoTime="998.4"/>
      <phase duration="3.50" state="rrrsrrGGyrr" sumoTime="1005.2"/>
      <phase duration="1.00" state="rrrsrrGGrrr" sumoTime="1008.7"/>
      <phase duration="269.80" state="GGgsrrGGgrr" sumoTime="1009.7"/>
      <phase duration="4.50" state="yyysrryyyrr" sumoTime="1279.5"/>
      <phase duration="2.00" state="rrrsrrrrrrr" sumoTime="1284.0"/>
      <phase duration="9.00" state="rrrsrGrrrrG" sumoTime="1286.0"/>
      <phase duration="3.50" state="rrrsryrrrry" sumoTime="1295.0"/>
      <phase duration="1.00" state="rrrsrrrrrrr" sumoTime="1298.5"/>
      <phase duration="6.30" state="rrrsrrGGGrr" sumoTime="1299.5"/>
      <phase duration="3.50" state="rrrsrrGGyrr" sumoTime="1305.8"/>
      <phase duration="1.00" state="rrrsrrGGrrr" sumoTime="1309.3"/>
      <phase duration="119.20" state="GGgsrrGGgrr" sumoTime="1310.3"/>
      <phase duration="4.50" state="yyysrryyyrr" sumoTime="1429.5"/>
      <phase duration="2.00" state="rrrsrrrrrrr" sumoTime="1434.0"/>
      <phase duration="8.60" state="rrrGGGrrrrr" sumoTime="1436.0"/>
      <phase duration="3.50" state="rrryyyrrrrr" sumoTime="1444.6"/>
      <phase duration="1.00" state="rrrsrrrrrrr" sumoTime="1448.1"/>
      <phase duration="6.50" state="rrrsrrGGGrr" sumoTime="1449.1"/>
      <phase duration="3.50" state="rrrsrrGGyrr" sumoTime="1455.6"/>
      <phase duration="1.00" state="rrrsrrGGrrr" sumoTime="1459.1"/>
      <phase duration="119.40" state="GGgsrrGGgrr" sumoTime="1460.1"/>
      <phase duration="4.50" state="yyysrryyyrr" sumoTime="1579.5"/>
      <phase duration="2.00" state="rrrsrrrrrrr" sumoTime="1584.0"/>
      <phase duration="8.00" state="rrrsrrrrrGG" sumoTime="1586.0"/>
      <phase duration="3.50" state="rrrsrrrrryy" sumoTime="1594.0"/>
      <phase duration="1.00" state="rrrsrrrrrrr" sumoTime="1597.5"/>
      <phase duration="131.00" state="GGgsrrGGgrr" sumoTime="1598.5"/>
      <phase duration="4.50" state="yyysrryyyrr" sumoTime="1729.5"/>
      <phase duration="2.00" state="rrrsrrrrrrr" sumoTime="1734.0"/>
      <phase duration="10.50" state="rrrGGGrrrrr" sumoTime="1736.0"/>
      <phase duration="3.50" state="rrryyyrrrrr" sumoTime="1746.5"/>
      <phase duration="1.00" state="rrrsrrrrrrr" sumoTime="1750.0"/>
      <phase duration="128.50" state="GGgsrrGGgrr" sumoTime="1751.0"/>
      <phase duration="4.50" state="yyysrryyyrr" sumoTime="1879.5"/>
      <phase duration="2.00" state="rrrsrrrrrrr" sumoTime="1884.0"/>
      <phase duration="9.70" state="rrrsrrrrrGG" sumoTime="1886.0"/>
      <phase duration="3.50" state="rrrsrrrrryy" sumoTime="1895.7"/>
      <phase duration="1.00" state="rrrsrrrrrrr" sumoTime="1899.2"/>
      <phase duration="279.30" state="GGgsrrGGgrr" sumoTime="1900.2"/>
      <phase duration="4.50" state="yyysrryyyrr" sumoTime="2179.5"/>
      <phase duration="2.00" state="rrrsrrrrrrr" sumoTime="2184.0"/>
      <phase duration="5.70" state="rrrsrGrrrrG" sumoTime="2186.0"/>
      <phase duration="3.50" state="rrrsryrrrry" sumoTime="2191.7"/>
      <phase duration="1.00" state="rrrsrrrrrrr" sumoTime="2195.2"/>
      <phase duration="133.30" state="GGgsrrGGgrr" sumoTime="2196.2"/>
      <phase duration="4.50" state="yyysrryyyrr" sumoTime="2329.5"/>
      <phase duration="2.00" state="rrrsrrrrrrr" sumoTime="2334.0"/>
      <phase duration="9.60" state="rrrsrrrrrGG" sumoTime="2336.0"/>
      <phase duration="3.50" state="rrrsrrrrryy" sumoTime="2345.6"/>
      <phase duration="1.00" state="rrrsrrrrrrr" sumoTime="2349.1"/>
      <phase duration="129.40" state="GGgsrrGGgrr" sumoTime="2350.1"/>
      <phase duration="4.50" state="yyysrryyyrr" sumoTime="2479.5"/>
      <phase duration="2.00" state="rrrsrrrrrrr" sumoTime="2484.0"/>
      <phase duration="7.50" state="rrrsrGrrrrG" sumoTime="2486.0"/>
      <phase duration="3.50" state="rrrsryrrrry" sumoTime="2493.5"/>
      <phase duration="1.00" state="rrrsrrrrrrr" sumoTime="2497.0"/>
      <phase duration="6.50" state="rrrsrrGGGrr" sumoTime="2498.0"/>
      <phase duration="3.50" state="rrrsrrGGyrr" sumoTime="2504.5"/>
      <phase duration="1.00" state="rrrsrrGGrrr" sumoTime="2508.0"/>
      <phase duration="120.50" state="GGgsrrGGgrr" sumoTime="2509.0"/>
      <phase duration="4.50" state="yyysrryyyrr" sumoTime="2629.5"/>
      <phase duration="2.00" state="rrrsrrrrrrr" sumoTime="2634.0"/>
      <phase duration="10.50" state="rrrsrGrrrrG" sumoTime="2636.0"/>
      <phase duration="3.50" state="rrrsryrrrry" sumoTime="2646.5"/>
      <phase duration="1.00" state="rrrsrrrrrrr" sumoTime="2650.0"/>
      <phase duration="6.00" state="rrrsrrGGGrr" sumoTime="2651.0"/>
      <phase duration="3.50" state="rrrsrrGGyrr" sumoTime="2657.0"/>
      <phase duration="1.00" state="rrrsrrGGrrr" sumoTime="2660.5"/>
      <phase duration="118.00" state="GGgsrrGGgrr" sumoTime="2661.5"/>
      <phase duration="4.50" state="yyysrryyyrr" sumoTime="2779.5"/>
      <phase duration="2.00" state="rrrsrrrrrrr" sumoTime="2784.0"/>
      <phase duration="8.00" state="rrrGGGrrrrr" sumoTime="2786.0"/>
      <phase duration="3.50" state="rrryyyrrrrr" sumoTime="2794.0"/>
      <phase duration="1.00" state="rrrsrrrrrrr" sumoTime="2797.5"/>
      <phase duration="8.90" state="rrrsrrGGGrr" sumoTime="2798.5"/>
      <phase duration="3.50" state="rrrsrrGGyrr" sumoTime="2807.4"/>
      <phase duration="1.00" state="rrrsrrGGrrr" sumoTime="2810.9"/>
      <phase duration="117.60" state="GGgsrrGGgrr" sumoTime="2811.9"/>
      <phase duration="4.50" state="yyysrryyyrr" sumoTime="2929.5"/>
      <phase duration="2.00" state="rrrsrrrrrrr" sumoTime="2934.0"/>
      <phase duration="8.40" state="rrrsrGrrrrG" sumoTime="2936.0"/>
      <phase duration="3.50" state="rrrsryrrrry" sumoTime="2944.4"/>
      <phase duration="1.00" state="rrrsrrrrrrr" sumoTime="2947.9"/>
      <phase duration="6.50" state="GGGsrrrrrrr" sumoTime="2948.9"/>
      <phase duration="3.50" state="GGysrrrrrrr" sumoTime="2955.4"/>
      <phase duration="1.00" state="GGrsrrrrrrr" sumoTime="2958.9"/>
      <phase duration="269.60" state="GGgsrrGGgrr" sumoTime="2959.9"/>
      <phase duration="4.50" state="yyysrryyyrr" sumoTime="3229.5"/>
      <phase duration="2.00" state="rrrsrrrrrrr" sumoTime="3234.0"/>
      <phase duration="10.10" state="rrrGGGrrrrr" sumoTime="3236.0"/>
      <phase duration="3.50" state="rrryyyrrrrr" sumoTime="3246.1"/>
      <phase duration="1.00" state="rrrsrrrrrrr" sumoTime="3249.6"/>
      <phase duration="128.90" state="GGgsrrGGgrr" sumoTime="3250.6"/>
      <phase duration="4.50" state="yyysrryyyrr" sumoTime="3379.5"/>
      <phase duration="2.00" state="rrrsrrrrrrr" sumoTime="3384.0"/>
      <phase duration="8.90" state="rrrsrGrrrrG" sumoTime="3386.0"/>
      <phase duration="3.50" state="rrrsryrrrrG" sumoTime="3394.9"/>
      <phase duration="0.40" state="rrrsrrrrrrG" sumoTime="3398.4"/>
      <phase duration="0.60" state="rrrsrrrrrry" sumoTime="3398.8"/>