<additional>
    <vTypeDistribution id="vehDist">
        <vType carFollowModel="IDM" id="vehDist0" length="5.151" sigma="0.401" tau="0.825" lcKeepRight="0.5" vClass="passenger"/>
        <vType carFollowModel="IDM" id="vehDist1" length="5.013" sigma="0.305" tau="0.786" lcKeepRight="0.5" vClass="passenger"/>
        <vType carFollowModel="IDM" id="vehDist2" length="4.835" sigma="0.848" tau="0.683" lcKeepRight="0.5" vClass="passenger"/>
        <vType carFollowModel="IDM" id="vehDist3" length="5.290" sigma="0.801" tau="0.918" lcKeepRight="0.5" vClass="passenger"/>
        <vType carFollowModel="IDM" id="vehDist4" length="5.196" sigma="0.407" tau="1.031" lcKeepRight="0.5" vClass="passenger"/>
        <vType carFollowModel="IDM" id="vehDist5" length="4.769" sigma="0.574" tau="0.947" lcKeepRight="0.5" vClass="passenger"/>
        <vType carFollowModel="IDM" id="vehDist6" length="4.973" sigma="0.310" tau="0.706" lcKeepRight="0.5" vClass="passenger"/>
        <vType carFollowModel="IDM" id="vehDist7" length="4.483" sigma="0.630" tau="0.772" lcKeepRight="0.5" vClass="passenger"/>
        <vType carFollowModel="IDM" id="vehDist8" length="4.814" sigma="0.562" tau="0.707" lcKeepRight="0.5" vClass="passenger"/>
        <vType carFollowModel="IDM" id="vehDist9" length="5.163" sigma="0.588" tau="0.894" lcKeepRight="0.5" vClass="passenger"/>
        <vType carFollowModel="IDM" id="vehDist10" length="5.184" sigma="0.529" tau="0.746" lcKeepRight="0.5" vClass="passenger"/>
        <vType carFollowModel="IDM" id="vehDist11" length="5.073" sigma="0.141" tau="0.778" lcKeepRight="0.5" vClass="passenger"/>
        <vType carFollowModel="IDM" id="vehDist12" length="4.677" sigma="0.635" tau="0.679" lcKeepRight="0.5" vClass="passenger"/>
        <vType carFollowModel="IDM" id="vehDist13" length="5.075" sigma="0.156" tau="0.682" lcKeepRight="0.5" vClass="passenger"/>
        <vType carFollowModel="IDM" id="vehDist14" length="4.944" sigma="0.308" tau="0.800" lcKeepRight="0.5" vClass="passenger"/>
        <vType carFollowModel="IDM" id="vehDist15" length="4.830" sigma="0.704" tau="0.898" lcKeepRight="0.5" vClass="passenger"/>
        <vType carFollowModel="IDM" id="vehDist16" length="4.881" sigma="0.605" tau="0.662" lcKeepRight="0.5" vClass="passenger"/>
        <vType carFollowModel="IDM" id="vehDist17" length="4.751" sigma="0.550" tau="0.783" lcKeepRight="0.5" vClass="passenger"/>
        <vType carFollowModel="IDM" id="vehDist18" length="4.765" sigma="0.332" tau="0.778" lcKeepRight="0.5" vClass="passenger"/>
        <vType carFollowModel="IDM" id="vehDist19" length="4.628" sigma="0.101" tau="0.741" lcKeepRight="0.5" vClass="passenger"/>
        <vType carFollowModel="IDM" id="vehDist20" length="4.856" sigma="0.848" tau="0.744" lcKeepRight="0.5" vClass="passenger"/>
        <vType carFollowModel="IDM" id="vehDist21" length="4.851" sigma="0.257" tau="0.865" lcKeepRight="0.5" vClass="passenger"/>
        <vType carFollowModel="IDM" id="vehDist22" length="5.065" sigma="0.449" tau="0.920" lcKeepRight="0.5" vClass="passenger"/>
        <vType carFollowModel="IDM" id="vehDist23" length="4.759" sigma="0.463" tau="0.704" lcKeepRight="0.5" vClass="passenger"/>
        <vType carFollowModel="IDM" id="vehDist24" length="4.894" sigma="0.644" tau="0.809" lcKeepRight="0.5" vClass="passenger"/>
        <vType carFollowModel="IDM" id="vehDist25" length="4.873" sigma="0.127" tau="0.782" lcKeepRight="0.5" vClass="passenger"/>
        <vType carFollowModel="IDM" id="vehDist26" length="4.957" sigma="0.332" tau="0.834" lcKeepRight="0.5" vClass="passenger"/>
        <vType carFollowModel="IDM" id="vehDist27" length="4.723" sigma="0.507" tau="0.617" lcKeepRight="0.5" vClass="passenger"/>
        <vType carFollowModel="IDM" id="vehDist28" length="5.078" sigma="0.397" tau="0.850" lcKeepRight="0.5" vClass="passenger"/>
        <vType carFollowModel="IDM" id="vehDist29" length="5.020" sigma="0.433" tau="0.843" lcKeepRight="0.5" vClass="passenger"/>
        <vType carFollowModel="IDM" id="vehDist30" length="4.984" sigma="0.352" tau="0.621" lcKeepRight="0.5" vClass="passenger"/>
        <vType carFollowModel="IDM" id="vehDist31" length="4.714" sigma="0.229" tau="0.673" lcKeepRight="0.5" vClass="passenger"/>
        <vType carFollowModel="IDM" id="vehDist32" length="5.055" sigma="0.886" tau="0.773" lcKeepRight="0.5" vClass="passenger"/>
        <vType carFollowModel="IDM" id="vehDist33" length="4.994" sigma="0.302" tau="0.649" lcKeepRight="0.5" vClass="passenger"/>
        <vType carFollowModel="IDM" id="vehDist34" length="4.864" sigma="0.458" tau="0.831" lcKeepRight="0.5" vClass="passenger"/>
        <vType carFollowModel="IDM" id="vehDist35" length="4.875" sigma="0.685" tau="0.832" lcKeepRight="0.5" vClass="passenger"/>
        <vType carFollowModel="IDM" id="vehDist36" length="4.762" sigma="0.775" tau="0.952" lcKeepRight="0.5" vClass="passenger"/>
        <vType carFollowModel="IDM" id="vehDist37" length="4.815" sigma="0.404" tau="0.887" lcKeepRight="0.5" vClass="passenger"/>
        <vType carFollowModel="IDM" id="vehDist38" length="4.381" sigma="0.611" tau="0.873" lcKeepRight="0.5" vClass="passenger"/>
        <vType carFollowModel="IDM" id="vehDist39" length="4.466" sigma="0.631" tau="0.790" lcKeepRight="0.5" vClass="passenger"/>
        <vType carFollowModel="IDM" id="vehDist40" length="5.116" sigma="0.581" tau="0.911" lcKeepRight="0.5" vClass="passenger"/>
        <vType carFollowModel="IDM" id="vehDist41" length="4.975" sigma="0.614" tau="0.681" lcKeepRight="0.5" vClass="passenger"/>
        <vType carFollowModel="IDM" id="vehDist42" length="4.947" sigma="0.211" tau="0.753" lcKeepRight="0.5" vClass="passenger"/>
        <vType carFollowModel="IDM" id="vehDist43" length="4.984" sigma="0.450" tau="0.926" lcKeepRight="0.5" vClass="passenger"/>
        <vType carFollowModel="IDM" id="vehDist44" length="4.789" sigma="0.608" tau="0.590" lcKeepRight="0.5" vClass="passenger"/>
        <vType carFollowModel="IDM" id="vehDist45" length="5.259" sigma="0.279" tau="0.776" lcKeepRight="0.5" vClass="passenger"/>
        <vType carFollowModel="IDM" id="vehDist46" length="4.999" sigma="0.443" tau="0.724" lcKeepRight="0.5" vClass="passenger"/>
        <vType carFollowModel="IDM" id="vehDist47" length="5.022" sigma="0.407" tau="0.787" lcKeepRight="0.5" vClass="passenger"/>
        <vType carFollowModel="IDM" id="vehDist48" length="5.339" sigma="0.569" tau="0.653" lcKeepRight="0.5" vClass="passenger"/>
        <vType carFollowModel="IDM" id="vehDist49" length="4.821" sigma="0.333" tau="0.838" lcKeepRight="0.5" vClass="passenger"/>
        <vType carFollowModel="IDM" id="vehDist50" length="5.274" sigma="0.497" tau="0.627" lcKeepRight="0.5" vClass="passenger"/>
        <vType carFollowModel="IDM" id="vehDist51" length="4.825" sigma="0.506" tau="0.683" lcKeepRight="0.5" vClass="passenger"/>
        <vType carFollowModel="IDM" id="vehDist52" length="5.052" sigma="0.847" tau="1.128" lcKeepRight="0.5" vClass="passenger"/>
        <vType carFollowModel="IDM" id="vehDist53" length="4.661" sigma="0.488" tau="0.925" lcKeepRight="0.5" vClass="passenger"/>
        <vType carFollowModel="IDM" id="vehDist54" length="4.697" sigma="0.560" tau="0.895" lcKeepRight="0.5" vClass="passenger"/>
        <vType carFollowModel="IDM" id="vehDist55" length="4.599" sigma="0.516" tau="0.742" lcKeepRight="0.5" vClass="passenger"/>
        <vType carFollowModel="IDM" id="vehDist56" length="4.864" sigma="0.431" tau="0.838" lcKeepRight="0.5" vClass="passenger"/>
        <vType carFollowModel="IDM" id="vehDist57" length="4.694" sigma="0.595" tau="0.656" lcKeepRight="0.5" vClass="passenger"/>
        <vType carFollowModel="IDM" id="vehDist58" length="4.777" sigma="0.540" tau="0.745" lcKeepRight="0.5" vClass="passenger"/>
        <vType carFollowModel="IDM" id="vehDist59" length="4.861" sigma="0.325" tau="0.789" lcKeepRight="0.5" vClass="passenger"/>
        <vType carFollowModel="IDM" id="vehDist60" length="4.817" sigma="0.543" tau="0.794" lcKeepRight="0.5" vClass="passenger"/>
        <vType carFollowModel="IDM" id="vehDist61" length="4.753" sigma="0.251" tau="0.684" lcKeepRight="0.5" vClass="passenger"/>
        <vType carFollowModel="IDM" id="vehDist62" length="5.135" sigma="0.407" tau="0.872" lcKeepRight="0.5" vClass="passenger"/>
        <vType carFollowModel="IDM" id="vehDist63" length="4.928" sigma="0.112" tau="0.906" lcKeepRight="0.5" vClass="passenger"/>
        <vType carFollowModel="IDM" id="vehDist64" length="4.996" sigma="0.210" tau="0.947" lcKeepRight="0.5" vClass="passenger"/>
        <vType carFollowModel="IDM" id="vehDist65" length="4.980" sigma="0.761" tau="0.700" lcKeepRight="0.5" vClass="passenger"/>
        <vType carFollowModel="IDM" id="vehDist66" length="5.049" sigma="0.801" tau="0.888" lcKeepRight="0.5" vClass="passenger"/>
        <vType carFollowModel="IDM" id="vehDist67" length="5.172" sigma="0.503" tau="0.780" lcKeepRight="0.5" vClass="passenger"/>
        <vType carFollowModel="IDM" id="vehDist68" length="4.925" sigma="0.089" tau="0.863" lcKeepRight="0.5" vClass="passenger"/>
        <vType carFollowModel="IDM" id="vehDist69" length="4.869" sigma="0.673" tau="0.759" lcKeepRight="0.5" vClass="passenger"/>
        <vType carFollowModel="IDM" id="vehDist70" length="4.411" sigma="0.647" tau="0.779" lcKeepRight="0.5" vClass="passenger"/>
        <vType carFollowModel="IDM" id="vehDist71" length="4.884" sigma="0.595" tau="0.571" lcKeepRight="0.5" vClass="passenger"/>
        <vType carFollowModel="IDM" id="vehDist72" length="4.721" sigma="0.485" tau="0.892" lcKeepRight="0.5" vClass="passenger"/>
        <vType carFollowModel="IDM" id="vehDist73" length="4.918" sigma="0.553" tau="0.847" lcKeepRight="0.5" vClass="passenger"/>
        <vType carFollowModel="IDM" id="vehDist74" length="4.803" sigma="0.595" tau="0.863" lcKeepRight="0.5" vClass="passenger"/>
        <vType carFollowModel="IDM" id="vehDist75" length="4.762" sigma="0.552" tau="0.740" lcKeepRight="0.5" vClass="passenger"/>
        <vType carFollowModel="IDM" id="vehDist76" length="4.817" sigma="0.844" tau="0.790" lcKeepRight="0.5" vClass="passenger"/>
        <vType carFollowModel="IDM" id="vehDist77" length="4.978" sigma="0.516" tau="0.732" lcKeepRight="0.5" vClass="passenger"/>
        <vType carFollowModel="IDM" id="vehDist78" length="4.881" sigma="0.800" tau="0.924" lcKeepRight="0.5" vClass="passenger"/>
        <vType carFollowModel="IDM" id="vehDist79" length="4.506" sigma="0.684" tau="0.945" lcKeepRight="0.5" vClass="passenger"/>
        <vType carFollowModel="IDM" id="vehDist80" length="5.029" sigma="0.730" tau="0.815" lcKeepRight="0.5" vClass="passenger"/>
        <vType carFollowModel="IDM" id="vehDist81" length="5.006" sigma="0.359" tau="0.807" lcKeepRight="0.5" vClass="passenger"/>
        <vType carFollowModel="IDM" id="vehDist82" length="4.945" sigma="0.565" tau="0.736" lcKeepRight="0.5" vClass="passenger"/>
        <vType carFollowModel="IDM" id="vehDist83" length="5.163" sigma="0.628" tau="0.643" lcKeepRight="0.5" vClass="passenger"/>
        <vType carFollowModel="IDM" id="vehDist84" length="5.098" sigma="0.334" tau="0.772" lcKeepRight="0.5" vClass="passenger"/>
        <vType carFollowModel="IDM" id="vehDist85" length="5.204" sigma="0.716" tau="0.759" lcKeepRight="0.5" vClass="passenger"/>
        <vType carFollowModel="IDM" id="vehDist86" length="4.819" sigma="0.222" tau="0.799" lcKeepRight="0.5" vClass="passenger"/>
        <vType carFollowModel="IDM" id="vehDist87" length="4.871" sigma="0.581" tau="0.936" lcKeepRight="0.5" vClass="passenger"/>
        <vType carFollowModel="IDM" id="vehDist88" length="4.897" sigma="0.580" tau="0.887" lcKeepRight="0.5" vClass="passenger"/>
        <vType carFollowModel="IDM" id="vehDist89" length="4.709" sigma="0.910" tau="0.761" lcKeepRight="0.5" vClass="passenger"/>
        <vType carFollowModel="IDM" id="vehDist90" length="4.832" sigma="0.477" tau="0.920" lcKeepRight="0.5" vClass="passenger"/>
        <vType carFollowModel="IDM" id="vehDist91" length="5.135" sigma="0.332" tau="0.812" lcKeepRight="0.5" vClass="passenger"/>
        <vType carFollowModel="IDM" id="vehDist92" length="4.830" sigma="0.733" tau="0.856" lcKeepRight="0.5" vClass="passenger"/>
        <vType carFollowModel="IDM" id="vehDist93" length="4.920" sigma="0.239" tau="0.825" lcKeepRight="0.5" vClass="passenger"/>
        <vType carFollowModel="IDM" id="vehDist94" length="5.051" sigma="0.727" tau="0.793" lcKeepRight="0.5" vClass="passenger"/>
        <vType carFollowModel="IDM" id="vehDist95" length="5.194" sigma="0.529" tau="0.565" lcKeepRight="0.5" vClass="passenger"/>
        <vType carFollowModel="IDM" id="vehDist96" length="4.915" sigma="0.056" tau="0.617" lcKeepRight="0.5" vClass="passenger"/>
        <vType carFollowModel="IDM" id="vehDist97" length="4.920" sigma="0.496" tau="0.747" lcKeepRight="0.5" vClass="passenger"/>
        <vType carFollowModel="IDM" id="vehDist98" length="4.547" sigma="0.477" tau="0.820" lcKeepRight="0.5" vClass="passenger"/>
        <vType carFollowModel="IDM" id="vehDist99" length="5.074" sigma="0.785" tau="0.816" lcKeepRight="0.5" vClass="passenger"/>
    </vTypeDistribution>
</additional>
