<?xml version="1.0" encoding="UTF-8"?>

<!-- generated on Thu 25 Feb 2021 08:24:05 AM CST by Eclipse SUMO netedit Version 1.8.0
<configuration xmlns:xsi="http://www.w3.org/2001/XMLSchema-instance" xsi:noNamespaceSchemaLocation="http://sumo.dlr.de/xsd/netconvertConfiguration.xsd">

    <input>
        <sumo-net-file value="/home/max/SUMO/airport-harper-sumo/sumo-xml/simplified_reworked.net.xml"/>
    </input>

    <output>
        <output-file value="/home/max/SUMO/airport-harper-sumo/sumo-xml/simplified_reworked.net.xml"/>
        <output.street-names value="true"/>
    </output>

    <processing>
        <geometry.min-radius.fix.railways value="false"/>
        <geometry.max-grade.fix value="false"/>
        <offset.disable-normalization value="true"/>
        <lefthand value="false"/>
    </processing>

    <junctions>
        <no-turnarounds value="true"/>
        <junctions.corner-detail value="5"/>
        <junctions.limit-turn-speed value="5.5"/>
        <rectangular-lane-cut value="false"/>
    </junctions>

    <pedestrian>
        <walkingareas value="false"/>
    </pedestrian>

    <report>
        <aggregate-warnings value="5"/>
    </report>

</configuration>
-->

<net version="1.6" junctionCornerDetail="5" limitTurnSpeed="5.50" xmlns:xsi="http://www.w3.org/2001/XMLSchema-instance" xsi:noNamespaceSchemaLocation="http://sumo.dlr.de/xsd/net_file.xsd">

    <location netOffset="-441419.41,-3676592.75" convBoundary="558.02,533.69,1973.18,1177.48" origBoundary="-87.628748,33.226723,-87.598600,33.248134" projParameter="+proj=utm +zone=16 +ellps=WGS84 +datum=WGS84 +units=m +no_defs"/>

    <type id="highway.bridleway" priority="1" numLanes="1" speed="2.78" allow="pedestrian" oneway="1" width="2.00"/>
    <type id="highway.bus_guideway" priority="1" numLanes="1" speed="27.78" allow="bus" oneway="1"/>
    <type id="highway.cycleway" priority="1" numLanes="1" speed="8.33" allow="bicycle" oneway="1" width="1.00"/>
    <type id="highway.footway" priority="1" numLanes="1" speed="2.78" allow="pedestrian" oneway="1" width="2.00"/>
    <type id="highway.ford" priority="1" numLanes="1" speed="2.78" allow="army" oneway="1"/>
    <type id="highway.living_street" priority="2" numLanes="1" speed="2.78" disallow="tram rail_urban rail rail_electric rail_fast ship" oneway="1"/>
    <type id="highway.motorway" priority="14" numLanes="2" speed="39.44" allow="private emergency authority army vip passenger hov taxi bus coach delivery truck trailer motorcycle evehicle custom1 custom2" oneway="1"/>
    <type id="highway.motorway_link" priority="9" numLanes="1" speed="22.22" allow="private emergency authority army vip passenger hov taxi bus coach delivery truck trailer motorcycle evehicle custom1 custom2" oneway="1"/>
    <type id="highway.path" priority="1" numLanes="1" speed="2.78" allow="pedestrian bicycle" oneway="1" width="2.00"/>
    <type id="highway.pedestrian" priority="1" numLanes="1" speed="2.78" allow="pedestrian" oneway="1" width="2.00"/>
    <type id="highway.primary" priority="12" numLanes="2" speed="27.78" disallow="tram rail_urban rail rail_electric rail_fast ship" oneway="1"/>
    <type id="highway.primary_link" priority="7" numLanes="1" speed="22.22" disallow="tram rail_urban rail rail_electric rail_fast ship" oneway="1"/>
    <type id="highway.raceway" priority="15" numLanes="2" speed="83.33" allow="vip" oneway="1"/>
    <type id="highway.residential" priority="3" numLanes="1" speed="13.89" disallow="tram rail_urban rail rail_electric rail_fast ship" oneway="1"/>
    <type id="highway.secondary" priority="11" numLanes="1" speed="27.78" disallow="tram rail_urban rail rail_electric rail_fast ship" oneway="1"/>
    <type id="highway.secondary_link" priority="6" numLanes="1" speed="22.22" disallow="tram rail_urban rail rail_electric rail_fast ship" oneway="1"/>
    <type id="highway.service" priority="1" numLanes="1" speed="5.56" allow="pedestrian delivery bicycle" oneway="1"/>
    <type id="highway.stairs" priority="1" numLanes="1" speed="1.39" allow="pedestrian" oneway="1" width="2.00"/>
    <type id="highway.step" priority="1" numLanes="1" speed="1.39" allow="pedestrian" oneway="1" width="2.00"/>
    <type id="highway.steps" priority="1" numLanes="1" speed="1.39" allow="pedestrian" oneway="1" width="2.00"/>
    <type id="highway.tertiary" priority="10" numLanes="1" speed="22.22" disallow="tram rail_urban rail rail_electric rail_fast ship" oneway="1"/>
    <type id="highway.tertiary_link" priority="5" numLanes="1" speed="22.22" disallow="tram rail_urban rail rail_electric rail_fast ship" oneway="1"/>
    <type id="highway.track" priority="1" numLanes="1" speed="5.56" allow="pedestrian motorcycle moped bicycle" oneway="1"/>
    <type id="highway.trunk" priority="13" numLanes="2" speed="27.78" disallow="pedestrian bicycle tram rail_urban rail rail_electric rail_fast ship" oneway="1"/>
    <type id="highway.trunk_link" priority="8" numLanes="1" speed="22.22" disallow="pedestrian bicycle tram rail_urban rail rail_electric rail_fast ship" oneway="1"/>
    <type id="highway.unclassified" priority="4" numLanes="1" speed="13.89" disallow="tram rail_urban rail rail_electric rail_fast ship" oneway="1"/>
    <type id="highway.unsurfaced" priority="1" numLanes="1" speed="8.33" disallow="tram rail_urban rail rail_electric rail_fast ship" oneway="1"/>
    <type id="railway.highspeed" priority="21" numLanes="1" speed="69.44" allow="rail_fast" oneway="1"/>
    <type id="railway.light_rail" priority="19" numLanes="1" speed="27.78" allow="rail_urban" oneway="1"/>
    <type id="railway.preserved" priority="16" numLanes="1" speed="27.78" allow="rail" oneway="1"/>
    <type id="railway.rail" priority="20" numLanes="1" speed="44.44" allow="rail" oneway="1"/>
    <type id="railway.subway" priority="18" numLanes="1" speed="27.78" allow="rail_urban" oneway="1"/>
    <type id="railway.tram" priority="17" numLanes="1" speed="13.89" allow="tram" oneway="1"/>

    <edge id=":6018663506_0" function="internal">
        <lane id=":6018663506_0_0" index="0" disallow="tram rail_urban rail rail_electric rail_fast ship" speed="22.35" length="5.94" width="3.66" shape="1881.48,1036.05 1887.27,1037.45"/>
        <lane id=":6018663506_0_1" index="1" disallow="tram rail_urban rail rail_electric rail_fast ship" speed="22.35" length="5.94" width="3.66" shape="1880.52,1039.58 1886.28,1040.97"/>
    </edge>
    <edge id=":6018664060_0" function="internal">
        <lane id=":6018664060_0_0" index="0" disallow="tram rail_urban rail rail_electric rail_fast ship" speed="22.35" length="25.30" width="3.66" shape="1903.04,1060.33 1896.75,1059.25 1891.38,1059.19 1885.51,1059.01 1877.73,1057.53"/>
        <lane id=":6018664060_0_1" index="1" disallow="tram rail_urban rail rail_electric rail_fast ship" speed="22.35" length="25.30" width="3.66" shape="1903.04,1060.33 1878.69,1054.00"/>
        <lane id=":6018664060_0_2" index="2" disallow="tram rail_urban rail rail_electric rail_fast ship" speed="22.35" length="25.30" width="3.66" shape="1904.02,1056.81 1879.65,1050.47"/>
    </edge>
    <edge id=":6018664063_0" function="internal">
        <lane id=":6018664063_0_0" index="0" disallow="tram rail_urban rail rail_electric rail_fast ship" speed="22.35" length="0.10" width="3.66" shape="1842.39,1025.48 1842.39,1025.48"/>
        <lane id=":6018664063_0_1" index="1" disallow="tram rail_urban rail rail_electric rail_fast ship" speed="22.35" length="0.10" width="3.66" shape="1841.43,1029.02 1841.43,1029.02"/>
    </edge>
    <edge id=":6018664066_0" function="internal">
        <lane id=":6018664066_0_0" index="0" disallow="tram rail_urban rail rail_electric rail_fast ship" speed="22.35" length="11.71" width="3.66" shape="1850.99,1050.26 1839.62,1047.40"/>
        <lane id=":6018664066_0_1" index="1" disallow="tram rail_urban rail rail_electric rail_fast ship" speed="22.35" length="11.71" width="3.66" shape="1851.95,1046.73 1840.59,1043.87"/>
        <lane id=":6018664066_0_2" index="2" disallow="tram rail_urban rail rail_electric rail_fast ship" speed="22.35" length="11.71" width="3.66" shape="1852.91,1043.20 1841.56,1040.34"/>
    </edge>
    <edge id=":6018689144_0" function="internal">
        <lane id=":6018689144_0_0" index="0" disallow="tram rail_urban rail rail_electric rail_fast ship" speed="8.37" length="15.41" width="3.66" shape="1457.53,914.90 1457.61,917.64 1459.41,920.07 1462.93,922.19 1468.16,924.01"/>
    </edge>
    <edge id=":6018689144_1" function="internal">
        <lane id=":6018689144_1_0" index="0" disallow="tram rail_urban rail rail_electric rail_fast ship" speed="22.35" length="27.71" width="3.66" shape="1441.35,916.78 1468.16,924.01"/>
        <lane id=":6018689144_1_1" index="1" disallow="tram rail_urban rail rail_electric rail_fast ship" speed="22.35" length="27.71" width="3.66" shape="1440.45,920.33 1467.20,927.54"/>
        <lane id=":6018689144_1_2" index="2" disallow="tram rail_urban rail rail_electric rail_fast ship" speed="22.35" length="27.71" width="3.66" shape="1439.55,923.87 1466.24,931.07"/>
    </edge>
    <edge id=":6018699112_0" function="internal">
        <lane id=":6018699112_0_0" index="0" disallow="tram rail_urban rail rail_electric rail_fast ship" speed="22.35" length="12.96" width="3.66" shape="1117.98,851.39 1114.24,850.63 1111.60,850.48 1108.96,850.33 1105.22,849.57"/>
        <lane id=":6018699112_0_1" index="1" disallow="tram rail_urban rail rail_electric rail_fast ship" speed="22.35" length="12.96" width="3.66" shape="1118.94,847.86 1115.20,847.10 1112.56,846.95 1109.92,846.80 1106.18,846.04"/>
        <lane id=":6018699112_0_2" index="2" disallow="tram rail_urban rail rail_electric rail_fast ship" speed="22.35" length="12.96" width="3.66" shape="1118.94,847.86 1115.34,846.54 1113.04,845.18 1110.74,843.82 1107.13,842.51"/>
    </edge>
    <edge id=":6018699306_0" function="internal">
        <lane id=":6018699306_0_0" index="0" speed="13.89" length="13.07" width="3.66" shape="1632.34,990.20 1628.34,989.59 1625.30,989.76 1622.54,990.01 1619.35,989.62"/>
    </edge>
    <edge id=":6018699306_1" function="internal">
        <lane id=":6018699306_1_0" index="0" disallow="tram rail_urban rail rail_electric rail_fast ship" speed="18.12" length="12.73" width="3.66" shape="1632.34,990.20 1620.24,986.24"/>
        <lane id=":6018699306_1_1" index="1" disallow="tram rail_urban rail rail_electric rail_fast ship" speed="18.12" length="12.73" width="3.66" shape="1633.28,986.67 1621.18,982.70"/>
    </edge>
    <edge id=":63082002_0" function="internal">
        <lane id=":63082002_0_0" index="0" disallow="tram rail_urban rail rail_electric rail_fast ship" speed="22.35" length="26.23" width="3.66" shape="972.63,813.68 947.45,806.38"/>
        <lane id=":63082002_0_1" index="1" disallow="tram rail_urban rail rail_electric rail_fast ship" speed="22.35" length="26.23" width="3.66" shape="973.62,810.16 948.41,802.84"/>
    </edge>
    <edge id=":63082002_2" function="internal">
        <lane id=":63082002_2_0" index="0" speed="10.95" length="16.83" width="3.66" shape="974.61,806.63 968.06,803.60 964.27,798.78 963.73,795.34"/>
    </edge>
    <edge id=":63082002_6" function="internal">
        <lane id=":63082002_6_0" index="0" speed="10.95" length="11.75" width="3.66" shape="963.73,795.34 963.24,792.18 964.97,783.81"/>
    </edge>
    <edge id=":63082002_3" function="internal">
        <lane id=":63082002_3_0" index="0" disallow="tram rail_urban rail rail_electric rail_fast ship" speed="11.68" length="30.00" width="3.66" shape="968.74,785.07 964.84,794.20 960.16,800.20 954.68,803.08 948.41,802.84"/>
    </edge>
    <edge id=":63082002_4" function="internal">
        <lane id=":63082002_4_0" index="0" disallow="tram rail_urban rail rail_electric rail_fast ship" speed="22.35" length="26.42" width="3.66" shape="952.87,786.32 978.18,793.98"/>
        <lane id=":63082002_4_1" index="1" disallow="tram rail_urban rail rail_electric rail_fast ship" speed="22.35" length="26.42" width="3.66" shape="951.91,789.86 977.18,797.50"/>
    </edge>
    <edge id=":63082003_0" function="internal">
        <lane id=":63082003_0_0" index="0" disallow="tram rail_urban rail rail_electric rail_fast ship" speed="22.35" length="28.18" width="3.66" shape="1343.84,911.26 1316.48,904.50"/>
        <lane id=":63082003_0_1" index="1" disallow="tram rail_urban rail rail_electric rail_fast ship" speed="22.35" length="28.18" width="3.66" shape="1344.77,907.72 1317.42,900.96"/>
    </edge>
    <edge id=":63082003_2" function="internal">
        <lane id=":63082003_2_0" index="0" disallow="tram rail_urban rail rail_electric rail_fast ship" speed="11.01" length="29.18" width="3.66" shape="1345.70,904.18 1337.89,900.93 1333.14,896.24 1331.46,890.11 1332.84,882.54"/>
    </edge>
    <edge id=":63082003_3" function="internal">
        <lane id=":63082003_3_0" index="0" disallow="tram rail_urban rail rail_electric rail_fast ship" speed="7.60" length="13.23" width="3.66" shape="1340.26,885.25 1340.05,887.87 1341.36,890.13 1344.18,892.03 1348.51,893.55"/>
    </edge>
    <edge id=":63082003_4" function="internal">
        <lane id=":63082003_4_0" index="0" disallow="tram rail_urban rail rail_electric rail_fast ship" speed="10.61" length="31.40" width="3.66" shape="1340.26,885.25 1331.41,915.38"/>
    </edge>
    <edge id=":63082003_5" function="internal">
        <lane id=":63082003_5_0" index="0" disallow="tram rail_urban rail rail_electric rail_fast ship" speed="11.49" length="12.33" width="3.66" shape="1336.83,883.95 1333.02,892.63 1331.25,894.87"/>
    </edge>
    <edge id=":63082003_11" function="internal">
        <lane id=":63082003_11_0" index="0" disallow="tram rail_urban rail rail_electric rail_fast ship" speed="11.49" length="16.23" width="3.66" shape="1331.25,894.87 1328.51,898.35 1323.31,901.13 1317.42,900.96"/>
    </edge>
    <edge id=":63082003_6" function="internal">
        <lane id=":63082003_6_0" index="0" disallow="tram rail_urban rail rail_electric rail_fast ship" speed="22.35" length="28.17" width="3.66" shape="1321.33,886.15 1348.51,893.55"/>
        <lane id=":63082003_6_1" index="1" disallow="tram rail_urban rail rail_electric rail_fast ship" speed="22.35" length="28.17" width="3.66" shape="1320.39,889.69 1347.57,897.09"/>
    </edge>
    <edge id=":63082003_8" function="internal">
        <lane id=":63082003_8_0" index="0" disallow="tram rail_urban rail rail_electric rail_fast ship" speed="11.20" length="28.70" width="3.66" shape="1319.46,893.23 1326.51,896.35 1330.85,901.08 1332.48,907.42 1331.41,915.38"/>
    </edge>
    <edge id=":63082003_9" function="internal">
        <lane id=":63082003_9_0" index="0" disallow="tram rail_urban rail rail_electric rail_fast ship" speed="5.56" length="32.03" width="3.66" shape="1324.11,913.36 1332.84,882.54"/>
    </edge>
    <edge id=":63082003_10" function="internal">
        <lane id=":63082003_10_0" index="0" disallow="tram rail_urban rail rail_electric rail_fast ship" speed="11.41" length="13.49" width="3.66" shape="1327.64,914.33 1330.99,905.37 1333.36,902.25"/>
    </edge>
    <edge id=":63082003_12" function="internal">
        <lane id=":63082003_12_0" index="0" disallow="tram rail_urban rail rail_electric rail_fast ship" speed="11.41" length="16.23" width="3.66" shape="1333.36,902.25 1335.43,899.51 1340.96,896.75 1347.57,897.09"/>
    </edge>
    <edge id=":63082004_0" function="internal">
        <lane id=":63082004_0_0" index="0" speed="13.89" length="27.98" width="3.66" shape="1719.44,1013.69 1692.55,1006.27"/>
        <lane id=":63082004_0_1" index="1" speed="13.89" length="27.98" width="3.66" shape="1720.56,1010.20 1693.49,1002.73"/>
    </edge>
    <edge id=":63082004_2" function="internal">
        <lane id=":63082004_2_0" index="0" speed="13.16" length="20.80" width="3.66" shape="1721.68,1006.71 1713.73,1003.34 1708.18,997.99 1706.43,993.90"/>
    </edge>
    <edge id=":63082004_11" function="internal">
        <lane id=":63082004_11_0" index="0" speed="13.16" length="12.90" width="3.66" shape="1706.43,993.90 1705.04,990.65 1704.31,981.31"/>
    </edge>
    <edge id=":63082004_3" function="internal">
        <lane id=":63082004_3_0" index="0" speed="13.89" length="36.19" width="3.66" shape="1712.84,981.70 1710.88,1017.84"/>
    </edge>
    <edge id=":63082004_4" function="internal">
        <lane id=":63082004_4_0" index="0" speed="10.85" length="18.44" width="3.66" shape="1709.18,981.53 1708.34,991.49 1705.91,998.88 1705.40,999.31"/>
    </edge>
    <edge id=":63082004_12" function="internal">
        <lane id=":63082004_12_0" index="0" speed="10.85" length="13.22" width="3.66" shape="1705.40,999.31 1701.19,1002.89 1693.49,1002.73"/>
    </edge>
    <edge id=":63082004_5" function="internal">
        <lane id=":63082004_5_0" index="0" disallow="tram rail_urban rail rail_electric rail_fast ship" speed="22.35" length="28.88" width="3.66" shape="1697.98,985.90 1725.93,993.52"/>
        <lane id=":63082004_5_1" index="1" disallow="tram rail_urban rail rail_electric rail_fast ship" speed="22.35" length="28.88" width="3.66" shape="1697.04,989.44 1724.81,997.00"/>
    </edge>
    <edge id=":63082004_7" function="internal">
        <lane id=":63082004_7_0" index="0" disallow="tram rail_urban rail rail_electric rail_fast ship" speed="12.98" length="31.37" width="3.66" shape="1696.09,992.98 1702.74,996.15 1707.41,1001.35 1710.13,1008.58 1710.88,1017.84"/>
    </edge>
    <edge id=":63082004_8" function="internal">
        <lane id=":63082004_8_0" index="0" speed="9.52" length="16.67" width="3.66" shape="1702.80,1017.66 1702.23,1013.72 1700.34,1010.51 1697.11,1008.02 1692.55,1006.27"/>
    </edge>
    <edge id=":63082004_9" function="internal">
        <lane id=":63082004_9_0" index="0" speed="13.89" length="36.38" width="3.66" shape="1702.80,1017.66 1704.31,981.31"/>
    </edge>
    <edge id=":63082004_10" function="internal">
        <lane id=":63082004_10_0" index="0" disallow="tram rail_urban rail rail_electric rail_fast ship" speed="11.08" length="17.65" width="3.66" shape="1706.46,1017.74 1707.42,1007.35 1709.98,1000.61"/>
    </edge>
    <edge id=":63082004_13" function="internal">
        <lane id=":63082004_13_0" index="0" disallow="tram rail_urban rail rail_electric rail_fast ship" speed="11.08" length="16.56" width="3.66" shape="1709.98,1000.61 1710.28,999.84 1715.81,996.09 1724.81,997.00"/>
    </edge>
    <edge id=":64208332_0" function="internal">
        <lane id=":64208332_0_0" index="0" disallow="tram rail_urban rail rail_electric rail_fast ship" speed="10.48" length="4.20" width="3.66" shape="1456.33,945.36 1455.13,945.04 1454.28,944.90 1453.42,944.94 1452.21,945.17"/>
    </edge>
    <edge id=":64208332_1" function="internal">
        <lane id=":64208332_1_0" index="0" disallow="tram rail_urban rail rail_electric rail_fast ship" speed="22.35" length="19.13" width="3.66" shape="1457.29,941.83 1438.86,936.78"/>
        <lane id=":64208332_1_1" index="1" disallow="tram rail_urban rail rail_electric rail_fast ship" speed="22.35" length="19.13" width="3.66" shape="1458.25,938.29 1439.80,933.24"/>
        <lane id=":64208332_1_2" index="2" disallow="tram rail_urban rail rail_electric rail_fast ship" speed="22.35" length="19.13" width="3.66" shape="1459.21,934.76 1440.74,929.70"/>
    </edge>
    <edge id=":64208359_0" function="internal">
        <lane id=":64208359_0_0" index="0" disallow="tram rail_urban rail rail_electric rail_fast ship" speed="22.35" length="17.60" width="3.66" shape="1538.72,943.24 1555.52,947.94"/>
        <lane id=":64208359_0_1" index="1" disallow="tram rail_urban rail rail_electric rail_fast ship" speed="22.35" length="17.60" width="3.66" shape="1537.76,946.77 1554.56,951.46"/>
        <lane id=":64208359_0_2" index="2" disallow="tram rail_urban rail rail_electric rail_fast ship" speed="22.35" length="17.60" width="3.66" shape="1536.80,950.30 1541.99,951.14 1545.68,950.88 1549.37,950.62 1554.56,951.46"/>
    </edge>
    <edge id=":64501698_0" function="internal">
        <lane id=":64501698_0_0" index="0" disallow="tram rail_urban rail rail_electric rail_fast ship" speed="22.29" length="17.74" width="3.66" shape="990.54,793.51 993.93,794.81 997.51,796.05 1001.83,797.36 1007.43,798.90"/>
    </edge>
    <edge id=":64501698_1" function="internal">
        <lane id=":64501698_1_0" index="0" disallow="tram rail_urban rail rail_electric rail_fast ship" speed="22.35" length="18.02" width="3.66" shape="989.31,797.12 1006.49,802.44"/>
        <lane id=":64501698_1_1" index="1" disallow="tram rail_urban rail rail_electric rail_fast ship" speed="22.35" length="18.02" width="3.66" shape="988.31,800.64 1005.55,805.98"/>
    </edge>
    <edge id=":64501704_0" function="internal">
        <lane id=":64501704_0_0" index="0" disallow="tram rail_urban rail rail_electric rail_fast ship" speed="22.29" length="9.83" width="3.66" shape="926.56,774.79 929.35,775.68 931.27,776.37 933.22,776.76 936.09,776.73"/>
    </edge>
    <edge id=":64501704_1" function="internal">
        <lane id=":64501704_1_0" index="0" disallow="tram rail_urban rail rail_electric rail_fast ship" speed="22.35" length="8.84" width="3.66" shape="925.61,778.33 934.08,780.96"/>
        <lane id=":64501704_1_1" index="1" disallow="tram rail_urban rail rail_electric rail_fast ship" speed="22.35" length="8.84" width="3.66" shape="924.66,781.87 933.08,784.48"/>
    </edge>
    <edge id=":834845345#1-AddedOffRampNode_0" function="internal">
        <lane id=":834845345#1-AddedOffRampNode_0_0" index="0" disallow="tram rail_urban rail rail_electric rail_fast ship" speed="22.35" length="20.61" width="3.66" shape="873.84,764.15 879.73,765.18 884.03,765.14 888.40,765.12 894.50,766.21"/>
        <lane id=":834845345#1-AddedOffRampNode_0_1" index="1" disallow="tram rail_urban rail rail_electric rail_fast ship" speed="22.35" length="20.61" width="3.66" shape="873.84,764.15 893.55,769.75"/>
        <lane id=":834845345#1-AddedOffRampNode_0_2" index="2" disallow="tram rail_urban rail rail_electric rail_fast ship" speed="22.35" length="20.61" width="3.66" shape="872.90,767.69 892.60,773.29"/>
    </edge>
    <edge id=":834845345#4-AddedOnRampNode_0" function="internal">
        <lane id=":834845345#4-AddedOnRampNode_0_0" index="0" disallow="tram rail_urban rail rail_electric rail_fast ship" speed="22.35" length="24.93" width="3.66" shape="1116.88,827.88 1124.27,830.23 1129.49,832.48 1134.25,834.61 1140.28,836.63"/>
        <lane id=":834845345#4-AddedOnRampNode_0_1" index="1" disallow="tram rail_urban rail rail_electric rail_fast ship" speed="22.35" length="24.93" width="3.66" shape="1115.94,831.42 1140.28,836.63"/>
        <lane id=":834845345#4-AddedOnRampNode_0_2" index="2" disallow="tram rail_urban rail rail_electric rail_fast ship" speed="22.35" length="24.93" width="3.66" shape="1115.00,834.96 1139.32,840.17"/>
    </edge>
    <edge id=":gneJ11_0" function="internal">
        <lane id=":gneJ11_0_0" index="0" disallow="tram rail_urban rail rail_electric rail_fast ship" speed="11.46" length="10.07" width="3.66" shape="1330.53,876.47 1332.98,874.83 1334.46,873.37 1335.45,871.53 1336.42,868.73"/>
    </edge>
    <edge id=":gneJ11_1" function="internal">
        <lane id=":gneJ11_1_0" index="0" disallow="tram rail_urban rail rail_electric rail_fast ship" speed="10.61" length="10.81" width="3.66" shape="1334.00,879.25 1334.86,876.29 1335.25,874.01 1335.62,871.72 1336.42,868.73"/>
    </edge>
    <edge id=":gneJ12_0" function="internal">
        <lane id=":gneJ12_0_0" index="0" disallow="tram rail_urban rail rail_electric rail_fast ship" speed="18.12" length="8.74" width="3.66" shape="1312.78,907.00 1310.67,905.56 1309.49,904.09 1308.26,902.77 1305.99,901.75"/>
    </edge>
    <edge id=":gneJ12_1" function="internal">
        <lane id=":gneJ12_1_0" index="0" disallow="tram rail_urban rail rail_electric rail_fast ship" speed="22.35" length="7.95" width="3.66" shape="1313.66,903.75 1305.99,901.75"/>
        <lane id=":gneJ12_1_1" index="1" disallow="tram rail_urban rail rail_electric rail_fast ship" speed="22.35" length="7.95" width="3.66" shape="1314.62,900.22 1306.91,898.20"/>
    </edge>
    <edge id=":gneJ14_0" function="internal">
        <lane id=":gneJ14_0_0" index="0" disallow="tram rail_urban rail rail_electric rail_fast ship" speed="9.72" length="17.45" width="3.66" shape="1313.46,950.33 1314.34,944.73 1314.38,940.29 1314.28,936.54 1314.73,932.98"/>
    </edge>
    <edge id=":gneJ14_1" function="internal">
        <lane id=":gneJ14_1_0" index="0" disallow="tram rail_urban rail rail_electric rail_fast ship" speed="5.56" length="17.06" width="3.66" shape="1313.46,950.33 1318.59,934.01"/>
        <lane id=":gneJ14_1_1" index="1" disallow="tram rail_urban rail rail_electric rail_fast ship" speed="5.56" length="17.06" width="3.66" shape="1317.01,951.20 1322.13,934.96"/>
    </edge>
    <edge id=":gneJ16_0" function="internal">
        <lane id=":gneJ16_0_0" index="0" disallow="tram rail_urban rail rail_electric rail_fast ship" speed="18.12" length="12.91" width="3.66" shape="1424.64,933.01 1420.73,932.59 1417.76,933.18 1415.05,933.83 1411.89,933.60"/>
    </edge>
    <edge id=":gneJ16_1" function="internal">
        <lane id=":gneJ16_1_0" index="0" disallow="tram rail_urban rail rail_electric rail_fast ship" speed="22.35" length="12.13" width="3.66" shape="1424.64,933.01 1412.88,929.95"/>
        <lane id=":gneJ16_1_1" index="1" disallow="tram rail_urban rail rail_electric rail_fast ship" speed="22.35" length="12.13" width="3.66" shape="1425.58,929.47 1413.84,926.42"/>
        <lane id=":gneJ16_1_2" index="2" disallow="tram rail_urban rail rail_electric rail_fast ship" speed="22.35" length="12.13" width="3.66" shape="1426.52,925.93 1414.80,922.89"/>
    </edge>
    <edge id=":gneJ17_0" function="internal">
        <lane id=":gneJ17_0_0" index="0" disallow="tram rail_urban rail rail_electric rail_fast ship" speed="9.72" length="11.73" width="3.66" shape="1334.11,921.09 1331.86,923.48 1329.97,925.38 1328.43,927.46 1327.26,930.42"/>
    </edge>
    <edge id=":gneJ17_1" function="internal">
        <lane id=":gneJ17_1_0" index="0" disallow="tram rail_urban rail rail_electric rail_fast ship" speed="5.56" length="11.72" width="3.66" shape="1330.38,919.12 1327.26,930.42"/>
    </edge>
    <edge id=":gneJ18_0" function="internal">
        <lane id=":gneJ18_0_0" index="0" disallow="tram rail_urban rail rail_electric rail_fast ship" speed="18.12" length="14.78" width="3.66" shape="1372.75,899.94 1377.33,900.47 1380.89,899.92 1384.04,899.23 1387.37,899.38"/>
    </edge>
    <edge id=":gneJ18_1" function="internal">
        <lane id=":gneJ18_1_0" index="0" disallow="tram rail_urban rail rail_electric rail_fast ship" speed="22.35" length="14.28" width="3.66" shape="1372.75,899.94 1386.52,902.90"/>
        <lane id=":gneJ18_1_1" index="1" disallow="tram rail_urban rail rail_electric rail_fast ship" speed="22.35" length="14.28" width="3.66" shape="1371.81,903.48 1385.65,906.45"/>
        <lane id=":gneJ18_1_2" index="2" disallow="tram rail_urban rail rail_electric rail_fast ship" speed="22.35" length="14.28" width="3.66" shape="1371.81,903.48 1375.81,905.03 1378.29,906.77 1380.77,908.50 1384.78,910.01"/>
    </edge>
    <edge id=":gneJ21_0" function="internal">
        <lane id=":gneJ21_0_0" index="0" disallow="tram rail_urban rail rail_electric rail_fast ship" speed="22.35" length="34.87" width="3.66" shape="1580.75,954.87 1614.68,962.80"/>
        <lane id=":gneJ21_0_1" index="1" disallow="tram rail_urban rail rail_electric rail_fast ship" speed="22.35" length="34.87" width="3.66" shape="1579.79,958.39 1613.72,966.33"/>
        <lane id=":gneJ21_0_2" index="2" disallow="tram rail_urban rail rail_electric rail_fast ship" speed="22.35" length="34.87" width="3.66" shape="1579.79,958.39 1612.77,969.86"/>
    </edge>
    <edge id=":gneJ22_0" function="internal">
        <lane id=":gneJ22_0_0" index="0" disallow="tram rail_urban rail rail_electric rail_fast ship" speed="19.00" length="17.65" width="3.66" shape="1656.23,974.05 1661.87,975.07 1666.35,975.15 1670.16,975.00 1673.77,975.34"/>
    </edge>
    <edge id=":gneJ22_1" function="internal">
        <lane id=":gneJ22_1_0" index="0" disallow="tram rail_urban rail rail_electric rail_fast ship" speed="22.35" length="17.59" width="3.66" shape="1656.23,974.05 1672.99,978.84"/>
        <lane id=":gneJ22_1_1" index="1" disallow="tram rail_urban rail rail_electric rail_fast ship" speed="22.35" length="17.59" width="3.66" shape="1655.27,977.58 1672.19,982.42"/>
        <lane id=":gneJ22_1_2" index="2" disallow="tram rail_urban rail rail_electric rail_fast ship" speed="22.35" length="17.59" width="3.66" shape="1654.32,981.11 1671.39,986.00"/>
    </edge>
    <edge id=":gneJ23_0" function="internal">
        <lane id=":gneJ23_0_0" index="0" disallow="tram rail_urban rail rail_electric rail_fast ship" speed="14.85" length="11.34" width="3.66" shape="1700.48,973.69 1702.48,971.14 1704.14,969.17 1705.31,967.03 1705.86,963.99"/>
    </edge>
    <edge id=":gneJ23_1" function="internal">
        <lane id=":gneJ23_1_0" index="0" disallow="tram rail_urban rail rail_electric rail_fast ship" speed="14.77" length="11.15" width="3.66" shape="1704.60,975.07 1705.86,963.99"/>
    </edge>
    <edge id=":gneJ24_0" function="internal">
        <lane id=":gneJ24_0_0" index="0" disallow="tram rail_urban rail rail_electric rail_fast ship" speed="19.00" length="14.66" width="3.66" shape="1733.49,992.28 1736.46,993.87 1738.95,995.79 1741.88,997.76 1746.15,999.53"/>
    </edge>
    <edge id=":gneJ24_1" function="internal">
        <lane id=":gneJ24_1_0" index="0" disallow="tram rail_urban rail rail_electric rail_fast ship" speed="22.35" length="14.31" width="3.66" shape="1732.42,995.61 1746.15,999.53"/>
        <lane id=":gneJ24_1_1" index="1" disallow="tram rail_urban rail rail_electric rail_fast ship" speed="22.35" length="14.31" width="3.66" shape="1731.30,999.09 1745.09,1003.03"/>
    </edge>