<?xml version="1.0" encoding="UTF-8"?>

<!-- generated on 2022-01-29 12:32:54 by Eclipse SUMO netedit Version 1.11.0
<configuration xmlns:xsi="http://www.w3.org/2001/XMLSchema-instance" xsi:noNamespaceSchemaLocation="http://sumo.dlr.de/xsd/netconvertConfiguration.xsd">

    <input>
        <sumo-net-file value="C:\Users\gle\Documents\airport-harper-sumo\sumo-xml\simplified_reworked.net.xml"/>
    </input>

    <output>
        <output-file value="C:\Users\gle\Documents\airport-harper-sumo\sumo-xml\simplified_reworked.net.xml"/>
        <output.street-names value="true"/>
    </output>

    <processing>
        <geometry.min-radius.fix.railways value="false"/>
        <geometry.max-grade.fix value="false"/>
        <offset.disable-normalization value="true"/>
        <lefthand value="false"/>
    </processing>

    <junctions>
        <no-turnarounds value="true"/>
        <junctions.corner-detail value="5"/>
        <junctions.limit-turn-speed value="5.5"/>
        <rectangular-lane-cut value="false"/>
    </junctions>

    <pedestrian>
        <walkingareas value="false"/>
    </pedestrian>

    <report>
        <aggregate-warnings value="5"/>
    </report>

</configuration>
-->

<net version="1.9" junctionCornerDetail="5" limitTurnSpeed="5.50" xmlns:xsi="http://www.w3.org/2001/XMLSchema-instance" xsi:noNamespaceSchemaLocation="http://sumo.dlr.de/xsd/net_file.xsd">

    <location netOffset="-441419.41,-3676592.75" convBoundary="558.02,533.69,1971.65,1177.48" origBoundary="-87.628748,33.226723,-87.598600,33.248134" projParameter="+proj=utm +zone=16 +ellps=WGS84 +datum=WGS84 +units=m +no_defs"/>

    <type id="highway.bridleway" priority="1" numLanes="1" speed="2.78" allow="pedestrian" oneway="1" width="2.00"/>
    <type id="highway.bus_guideway" priority="1" numLanes="1" speed="27.78" allow="bus" oneway="1"/>
    <type id="highway.cycleway" priority="1" numLanes="1" speed="8.33" allow="bicycle" oneway="1" width="1.00"/>
    <type id="highway.footway" priority="1" numLanes="1" speed="2.78" allow="pedestrian" oneway="1" width="2.00"/>
    <type id="highway.ford" priority="1" numLanes="1" speed="2.78" allow="army" oneway="1"/>
    <type id="highway.living_street" priority="2" numLanes="1" speed="2.78" disallow="tram rail_urban rail rail_electric rail_fast ship" oneway="1"/>
    <type id="highway.motorway" priority="14" numLanes="2" speed="39.44" allow="private emergency authority army vip passenger hov taxi bus coach delivery truck trailer motorcycle evehicle custom1 custom2" oneway="1"/>
    <type id="highway.motorway_link" priority="9" numLanes="1" speed="22.22" allow="private emergency authority army vip passenger hov taxi bus coach delivery truck trailer motorcycle evehicle custom1 custom2" oneway="1"/>
    <type id="highway.path" priority="1" numLanes="1" speed="2.78" allow="pedestrian bicycle" oneway="1" width="2.00"/>
    <type id="highway.pedestrian" priority="1" numLanes="1" speed="2.78" allow="pedestrian" oneway="1" width="2.00"/>
    <type id="highway.primary" priority="12" numLanes="2" speed="27.78" disallow="tram rail_urban rail rail_electric rail_fast ship" oneway="1"/>
    <type id="highway.primary_link" priority="7" numLanes="1" speed="22.22" disallow="tram rail_urban rail rail_electric rail_fast ship" oneway="1"/>
    <type id="highway.raceway" priority="15" numLanes="2" speed="83.33" allow="vip" oneway="1"/>
    <type id="highway.residential" priority="3" numLanes="1" speed="13.89" disallow="tram rail_urban rail rail_electric rail_fast ship" oneway="1"/>
    <type id="highway.secondary" priority="11" numLanes="1" speed="27.78" disallow="tram rail_urban rail rail_electric rail_fast ship" oneway="1"/>
    <type id="highway.secondary_link" priority="6" numLanes="1" speed="22.22" disallow="tram rail_urban rail rail_electric rail_fast ship" oneway="1"/>
    <type id="highway.service" priority="1" numLanes="1" speed="5.56" allow="pedestrian delivery bicycle" oneway="1"/>
    <type id="highway.stairs" priority="1" numLanes="1" speed="1.39" allow="pedestrian" oneway="1" width="2.00"/>
    <type id="highway.step" priority="1" numLanes="1" speed="1.39" allow="pedestrian" oneway="1" width="2.00"/>
    <type id="highway.steps" priority="1" numLanes="1" speed="1.39" allow="pedestrian" oneway="1" width="2.00"/>
    <type id="highway.tertiary" priority="10" numLanes="1" speed="22.22" disallow="tram rail_urban rail rail_electric rail_fast ship" oneway="1"/>
    <type id="highway.tertiary_link" priority="5" numLanes="1" speed="22.22" disallow="tram rail_urban rail rail_electric rail_fast ship" oneway="1"/>
    <type id="highway.track" priority="1" numLanes="1" speed="5.56" allow="pedestrian motorcycle moped bicycle" oneway="1"/>
    <type id="highway.trunk" priority="13" numLanes="2" speed="27.78" disallow="pedestrian bicycle tram rail_urban rail rail_electric rail_fast ship" oneway="1"/>
    <type id="highway.trunk_link" priority="8" numLanes="1" speed="22.22" disallow="pedestrian bicycle tram rail_urban rail rail_electric rail_fast ship" oneway="1"/>
    <type id="highway.unclassified" priority="4" numLanes="1" speed="13.89" disallow="tram rail_urban rail rail_electric rail_fast ship" oneway="1"/>
    <type id="highway.unsurfaced" priority="1" numLanes="1" speed="8.33" disallow="tram rail_urban rail rail_electric rail_fast ship" oneway="1"/>
    <type id="railway.highspeed" priority="21" numLanes="1" speed="69.44" allow="rail_fast" oneway="1"/>
    <type id="railway.light_rail" priority="19" numLanes="1" speed="27.78" allow="rail_urban" oneway="1"/>
    <type id="railway.preserved" priority="16" numLanes="1" speed="27.78" allow="rail" oneway="1"/>
    <type id="railway.rail" priority="20" numLanes="1" speed="44.44" allow="rail" oneway="1"/>
    <type id="railway.subway" priority="18" numLanes="1" speed="27.78" allow="rail_urban" oneway="1"/>
    <type id="railway.tram" priority="17" numLanes="1" speed="13.89" allow="tram" oneway="1"/>

    <edge id=":6018663506_0" function="internal">
        <lane id=":6018663506_0_0" index="0" disallow="tram rail_urban rail rail_electric rail_fast ship" speed="22.35" length="17.55" width="3.66" shape="1870.72,1033.20 1887.62,1037.93"/>
        <lane id=":6018663506_0_1" index="1" disallow="tram rail_urban rail rail_electric rail_fast ship" speed="22.35" length="17.55" width="3.66" shape="1869.76,1036.74 1886.65,1041.46"/>
    </edge>
    <edge id=":6018664060_0" function="internal">
        <lane id=":6018664060_0_0" index="0" disallow="tram rail_urban rail rail_electric rail_fast ship" speed="22.35" length="22.31" width="3.66" shape="1899.00,1063.50 1877.32,1058.70"/>
        <lane id=":6018664060_0_1" index="1" disallow="tram rail_urban rail rail_electric rail_fast ship" speed="22.35" length="22.31" width="3.66" shape="1899.00,1063.50 1893.21,1061.50 1889.07,1059.46 1884.72,1057.35 1878.30,1055.17"/>
        <lane id=":6018664060_0_2" index="2" disallow="tram rail_urban rail rail_electric rail_fast ship" speed="22.35" length="22.31" width="3.66" shape="1899.98,1059.98 1894.19,1057.97 1890.04,1055.93 1885.69,1053.83 1879.28,1051.64"/>
    </edge>
    <edge id=":6018664063_0" function="internal">
        <lane id=":6018664063_0_0" index="0" disallow="tram rail_urban rail rail_electric rail_fast ship" speed="22.35" length="0.30" width="3.66" shape="1842.24,1025.44 1842.54,1025.52"/>
        <lane id=":6018664063_0_1" index="1" disallow="tram rail_urban rail rail_electric rail_fast ship" speed="22.35" length="0.30" width="3.66" shape="1841.29,1028.98 1841.57,1029.06"/>
    </edge>
    <edge id=":6018664066_0" function="internal">
        <lane id=":6018664066_0_0" index="0" disallow="tram rail_urban rail rail_electric rail_fast ship" speed="22.35" length="11.55" width="3.66" shape="1850.58,1051.30 1839.41,1048.53"/>
        <lane id=":6018664066_0_1" index="1" disallow="tram rail_urban rail rail_electric rail_fast ship" speed="22.35" length="11.55" width="3.66" shape="1851.56,1047.77 1840.35,1044.99"/>
        <lane id=":6018664066_0_2" index="2" disallow="tram rail_urban rail rail_electric rail_fast ship" speed="22.35" length="11.55" width="3.66" shape="1852.54,1044.24 1841.29,1041.45"/>
    </edge>
    <edge id=":6018689144_0" function="internal">
        <lane id=":6018689144_0_0" index="0" disallow="tram rail_urban rail rail_electric rail_fast ship" speed="8.55" length="16.24" width="3.66" shape="1457.39,915.42 1457.40,918.52 1459.19,921.21 1462.76,923.49 1468.12,925.35"/>
    </edge>
    <edge id=":6018689144_1" function="internal">
        <lane id=":6018689144_1_0" index="0" disallow="tram rail_urban rail rail_electric rail_fast ship" speed="22.35" length="25.94" width="3.66" shape="1443.06,918.67 1468.12,925.35"/>
        <lane id=":6018689144_1_1" index="1" disallow="tram rail_urban rail rail_electric rail_fast ship" speed="22.35" length="25.94" width="3.66" shape="1442.12,922.21 1467.18,928.89"/>
    </edge>
    <edge id=":6018699112_0" function="internal">
        <lane id=":6018699112_0_0" index="0" disallow="tram rail_urban rail rail_electric rail_fast ship" speed="22.35" length="24.20" width="3.66" shape="1127.68,856.06 1104.40,849.78"/>
        <lane id=":6018699112_0_1" index="1" disallow="tram rail_urban rail rail_electric rail_fast ship" speed="22.35" length="24.20" width="3.66" shape="1128.62,852.52 1105.37,846.25"/>
        <lane id=":6018699112_0_2" index="2" disallow="tram rail_urban rail rail_electric rail_fast ship" speed="22.35" length="24.20" width="3.66" shape="1128.62,852.52 1122.71,850.37 1118.25,847.87 1113.41,845.25 1106.34,842.72"/>
    </edge>
    <edge id=":6018699306_0" function="internal">
        <lane id=":6018699306_0_0" index="0" speed="18.12" length="22.85" width="3.66" shape="1639.07,992.33 1632.14,991.06 1625.92,990.78 1620.61,990.76 1616.37,990.29"/>
    </edge>
    <edge id=":6018699306_1" function="internal">
        <lane id=":6018699306_1_0" index="0" disallow="tram rail_urban rail rail_electric rail_fast ship" speed="22.35" length="22.54" width="3.66" shape="1639.07,992.33 1617.32,986.55"/>
        <lane id=":6018699306_1_1" index="1" disallow="tram rail_urban rail rail_electric rail_fast ship" speed="22.35" length="22.54" width="3.66" shape="1640.04,988.80 1618.22,983.00"/>
    </edge>
    <edge id=":63082002_0" function="internal">
        <lane id=":63082002_0_0" index="0" disallow="tram rail_urban rail rail_electric rail_fast ship" speed="22.35" length="26.23" width="3.66" shape="972.63,813.68 947.45,806.38"/>
        <lane id=":63082002_0_1" index="1" disallow="tram rail_urban rail rail_electric rail_fast ship" speed="22.35" length="26.23" width="3.66" shape="973.62,810.16 948.41,802.84"/>
    </edge>
    <edge id=":63082002_2" function="internal">
        <lane id=":63082002_2_0" index="0" speed="11.04" length="16.61" width="3.66" shape="974.61,806.63 968.21,803.61 964.47,798.77 963.92,795.40"/>
    </edge>
    <edge id=":63082002_6" function="internal">
        <lane id=":63082002_6_0" index="0" speed="11.04" length="11.93" width="3.66" shape="963.92,795.40 963.39,792.12 964.97,783.66"/>
    </edge>
    <edge id=":63082002_3" function="internal">
        <lane id=":63082002_3_0" index="0" disallow="tram rail_urban rail rail_electric rail_fast ship" speed="11.72" length="30.21" width="3.66" shape="968.81,784.85 964.89,794.07 960.18,800.15 954.68,803.07 948.41,802.84"/>
    </edge>
    <edge id=":63082002_4" function="internal">
        <lane id=":63082002_4_0" index="0" disallow="tram rail_urban rail rail_electric rail_fast ship" speed="22.35" length="26.42" width="3.66" shape="952.86,786.33 978.18,793.98"/>
        <lane id=":63082002_4_1" index="1" disallow="tram rail_urban rail rail_electric rail_fast ship" speed="22.35" length="26.42" width="3.66" shape="951.91,789.86 977.18,797.50"/>
    </edge>
    <edge id=":63082003_0" function="internal">
        <lane id=":63082003_0_0" index="0" disallow="tram rail_urban rail rail_electric rail_fast ship" speed="22.35" length="28.18" width="3.66" shape="1343.84,911.26 1316.48,904.50"/>
        <lane id=":63082003_0_1" index="1" disallow="tram rail_urban rail rail_electric rail_fast ship" speed="22.35" length="28.18" width="3.66" shape="1344.77,907.72 1317.42,900.96"/>
    </edge>
    <edge id=":63082003_2" function="internal">
        <lane id=":63082003_2_0" index="0" disallow="tram rail_urban rail rail_electric rail_fast ship" speed="11.00" length="16.49" width="3.66" shape="1345.70,904.18 1337.87,900.92 1333.11,896.23 1332.77,894.96"/>
    </edge>
    <edge id=":63082003_11" function="internal">
        <lane id=":63082003_11_0" index="0" disallow="tram rail_urban rail rail_electric rail_fast ship" speed="11.00" length="12.73" width="3.66" shape="1332.77,894.96 1331.44,890.10 1332.85,882.54"/>
    </edge>
    <edge id=":63082003_3" function="internal">
        <lane id=":63082003_3_0" index="0" disallow="tram rail_urban rail rail_electric rail_fast ship" speed="7.60" length="13.23" width="3.66" shape="1340.26,885.25 1340.05,887.87 1341.36,890.13 1344.18,892.03 1348.51,893.55"/>
    </edge>
    <edge id=":63082003_4" function="internal">
        <lane id=":63082003_4_0" index="0" disallow="tram rail_urban rail rail_electric rail_fast ship" speed="15.65" length="31.40" width="3.66" shape="1340.26,885.25 1331.41,915.38"/>
    </edge>
    <edge id=":63082003_5" function="internal">
        <lane id=":63082003_5_0" index="0" disallow="tram rail_urban rail rail_electric rail_fast ship" speed="11.48" length="12.33" width="3.66" shape="1336.83,883.95 1333.01,892.63 1331.25,894.87"/>
    </edge>
    <edge id=":63082003_12" function="internal">
        <lane id=":63082003_12_0" index="0" disallow="tram rail_urban rail rail_electric rail_fast ship" speed="11.48" length="16.23" width="3.66" shape="1331.25,894.87 1328.51,898.36 1323.31,901.13 1317.42,900.96"/>
    </edge>
    <edge id=":63082003_6" function="internal">
        <lane id=":63082003_6_0" index="0" disallow="tram rail_urban rail rail_electric rail_fast ship" speed="22.35" length="28.17" width="3.66" shape="1321.33,886.15 1348.51,893.55"/>
        <lane id=":63082003_6_1" index="1" disallow="tram rail_urban rail rail_electric rail_fast ship" speed="22.35" length="28.17" width="3.66" shape="1320.39,889.69 1347.57,897.09"/>
    </edge>
    <edge id=":63082003_8" function="internal">
        <lane id=":63082003_8_0" index="0" disallow="tram rail_urban rail rail_electric rail_fast ship" speed="11.21" length="15.56" width="3.66" shape="1319.46,893.23 1326.50,896.36 1330.84,901.10 1331.20,902.48"/>
    </edge>
    <edge id=":63082003_13" function="internal">
        <lane id=":63082003_13_0" index="0" disallow="tram rail_urban rail rail_electric rail_fast ship" speed="11.21" length="13.13" width="3.66" shape="1331.20,902.48 1332.48,907.44 1331.41,915.38"/>
    </edge>
    <edge id=":63082003_9" function="internal">
        <lane id=":63082003_9_0" index="0" disallow="tram rail_urban rail rail_electric rail_fast ship" speed="14.77" length="32.04" width="3.66" shape="1324.11,913.36 1332.85,882.54"/>
    </edge>
    <edge id=":63082003_10" function="internal">
        <lane id=":63082003_10_0" index="0" disallow="tram rail_urban rail rail_electric rail_fast ship" speed="11.41" length="13.49" width="3.66" shape="1327.64,914.33 1330.99,905.37 1333.36,902.25"/>
    </edge>
    <edge id=":63082003_14" function="internal">
        <lane id=":63082003_14_0" index="0" disallow="tram rail_urban rail rail_electric rail_fast ship" speed="11.41" length="16.23" width="3.66" shape="1333.36,902.25 1335.43,899.51 1340.96,896.75 1347.57,897.09"/>
    </edge>
    <edge id=":63082004_0" function="internal">
        <lane id=":63082004_0_0" index="0" speed="22.35" length="27.98" width="3.66" shape="1719.43,1013.69 1692.34,1007.03"/>
        <lane id=":63082004_0_1" index="1" speed="22.35" length="27.98" width="3.66" shape="1720.56,1010.20 1693.31,1003.50"/>
    </edge>
    <edge id=":63082004_2" function="internal">
        <lane id=":63082004_2_0" index="0" speed="13.04" length="20.25" width="3.66" shape="1721.68,1006.71 1713.99,1003.46 1708.65,998.09 1707.06,994.07"/>
    </edge>
    <edge id=":63082004_11" function="internal">
        <lane id=":63082004_11_0" index="0" speed="13.04" length="13.34" width="3.66" shape="1707.06,994.07 1705.68,990.61 1705.07,981.01"/>
    </edge>
    <edge id=":63082004_3" function="internal">
        <lane id=":63082004_3_0" index="0" speed="15.65" length="36.45" width="3.66" shape="1712.90,981.43 1710.88,1017.83"/>
    </edge>
    <edge id=":63082004_4" function="internal">
        <lane id=":63082004_4_0" index="0" speed="11.04" length="17.57" width="3.66" shape="1709.24,981.24 1708.11,991.59 1705.83,998.37"/>
    </edge>
    <edge id=":63082004_12" function="internal">
        <lane id=":63082004_12_0" index="0" speed="11.04" length="14.83" width="3.66" shape="1705.83,998.37 1705.51,999.32 1700.79,1003.57 1693.31,1003.50"/>
    </edge>
    <edge id=":63082004_5" function="internal">
        <lane id=":63082004_5_0" index="0" disallow="tram rail_urban rail rail_electric rail_fast ship" speed="22.35" length="28.71" width="3.66" shape="1698.16,985.95 1725.93,993.52"/>
        <lane id=":63082004_5_1" index="1" disallow="tram rail_urban rail rail_electric rail_fast ship" speed="22.35" length="28.71" width="3.66" shape="1697.18,989.48 1724.81,997.00"/>
    </edge>
    <edge id=":63082004_7" function="internal">
        <lane id=":63082004_7_0" index="0" disallow="tram rail_urban rail rail_electric rail_fast ship" speed="12.99" length="18.61" width="3.66" shape="1696.21,993.01 1702.75,996.15 1707.38,1001.33 1708.92,1005.46"/>
    </edge>
    <edge id=":63082004_13" function="internal">
        <lane id=":63082004_13_0" index="0" disallow="tram rail_urban rail rail_electric rail_fast ship" speed="12.99" length="12.62" width="3.66" shape="1708.92,1005.46 1710.09,1008.56 1710.88,1017.83"/>
    </edge>
    <edge id=":63082004_8" function="internal">
        <lane id=":63082004_8_0" index="0" speed="9.44" length="16.24" width="3.66" shape="1702.80,1017.77 1702.21,1014.18 1700.27,1011.19 1696.98,1008.80 1692.34,1007.03"/>
    </edge>
    <edge id=":63082004_9" function="internal">
        <lane id=":63082004_9_0" index="0" speed="15.65" length="36.83" width="3.66" shape="1702.80,1017.77 1705.07,981.01"/>
    </edge>
    <edge id=":63082004_10" function="internal">
        <lane id=":63082004_10_0" index="0" disallow="tram rail_urban rail rail_electric rail_fast ship" speed="11.09" length="17.82" width="3.66" shape="1706.46,1017.83 1707.41,1007.41 1710.01,1000.53"/>
    </edge>
    <edge id=":63082004_14" function="internal">
        <lane id=":63082004_14_0" index="0" disallow="tram rail_urban rail rail_electric rail_fast ship" speed="11.09" length="16.47" width="3.66" shape="1710.01,1000.53 1710.26,999.86 1715.80,996.09 1724.81,997.00"/>
    </edge>
    <edge id=":64208332_0" function="internal">
        <lane id=":64208332_0_0" index="0" disallow="tram rail_urban rail rail_electric rail_fast ship" speed="9.64" length="7.19" width="3.66" shape="1462.75,948.97 1460.70,948.31 1459.22,947.87 1457.77,947.87 1455.85,948.57"/>
    </edge>
    <edge id=":64208332_1" function="internal">
        <lane id=":64208332_1_0" index="0" disallow="tram rail_urban rail rail_electric rail_fast ship" speed="22.35" length="25.08" width="3.66" shape="1463.71,945.44 1439.74,937.97"/>
        <lane id=":64208332_1_1" index="1" disallow="tram rail_urban rail rail_electric rail_fast ship" speed="22.35" length="25.08" width="3.66" shape="1464.67,941.91 1440.76,934.45"/>
    </edge>
    <edge id=":64208359_0" function="internal">
        <lane id=":64208359_0_0" index="0" disallow="tram rail_urban rail rail_electric rail_fast ship" speed="22.35" length="17.62" width="3.66" shape="1538.47,943.98 1555.39,948.89"/>
        <lane id=":64208359_0_1" index="1" disallow="tram rail_urban rail rail_electric rail_fast ship" speed="22.35" length="17.62" width="3.66" shape="1537.53,947.52 1554.45,952.43"/>
    </edge>
    <edge id=":64501698_0" function="internal">
        <lane id=":64501698_0_0" index="0" disallow="tram rail_urban rail rail_electric rail_fast ship" speed="22.29" length="17.74" width="3.66" shape="990.54,793.51 993.93,794.81 997.51,796.05 1001.83,797.36 1007.43,798.90"/>
    </edge>
    <edge id=":64501698_1" function="internal">
        <lane id=":64501698_1_0" index="0" disallow="tram rail_urban rail rail_electric rail_fast ship" speed="22.35" length="18.02" width="3.66" shape="989.31,797.12 1006.49,802.44"/>
        <lane id=":64501698_1_1" index="1" disallow="tram rail_urban rail rail_electric rail_fast ship" speed="22.35" length="18.02" width="3.66" shape="988.31,800.64 1005.55,805.98"/>
    </edge>
    <edge id=":64501704_0" function="internal">
        <lane id=":64501704_0_0" index="0" disallow="tram rail_urban rail rail_electric rail_fast ship" speed="22.29" length="16.26" width="3.66" shape="923.25,774.58 938.98,778.71"/>
    </edge>
    <edge id=":64501704_1" function="internal">
        <lane id=":64501704_1_0" index="0" disallow="tram rail_urban rail rail_electric rail_fast ship" speed="22.35" length="16.25" width="3.66" shape="922.23,778.09 937.94,782.25"/>
        <lane id=":64501704_1_1" index="1" disallow="tram rail_urban rail rail_electric rail_fast ship" speed="22.35" length="16.25" width="3.66" shape="921.21,781.60 936.91,785.76"/>
    </edge>
    <edge id=":834845345#1-AddedOffRampNode_0" function="internal">
        <lane id=":834845345#1-AddedOffRampNode_0_0" index="0" disallow="tram rail_urban rail rail_electric rail_fast ship" speed="22.35" length="20.61" width="3.66" shape="873.84,764.15 879.75,765.15 884.08,765.06 888.47,765.04 894.57,766.24"/>
        <lane id=":834845345#1-AddedOffRampNode_0_1" index="1" disallow="tram rail_urban rail rail_electric rail_fast ship" speed="22.35" length="20.61" width="3.66" shape="873.84,764.15 893.55,769.75"/>
        <lane id=":834845345#1-AddedOffRampNode_0_2" index="2" disallow="tram rail_urban rail rail_electric rail_fast ship" speed="22.35" length="20.61" width="3.66" shape="872.90,767.69 892.53,773.26"/>
    </edge>
    <edge id=":834845345#4-AddedOnRampNode_0" function="internal">
        <lane id=":834845345#4-AddedOnRampNode_0_0" index="0" disallow="tram rail_urban rail rail_electric rail_fast ship" speed="22.35" length="24.53" width="3.66" shape="1116.88,827.88 1124.10,830.34 1129.10,832.85 1133.67,835.25 1139.63,837.36"/>
        <lane id=":834845345#4-AddedOnRampNode_0_1" index="1" disallow="tram rail_urban rail rail_electric rail_fast ship" speed="22.35" length="24.53" width="3.66" shape="1115.94,831.42 1139.63,837.36"/>
        <lane id=":834845345#4-AddedOnRampNode_0_2" index="2" disallow="tram rail_urban rail rail_electric rail_fast ship" speed="22.35" length="24.53" width="3.66" shape="1115.00,834.96 1138.71,840.90"/>
    </edge>
    <edge id=":gneJ11_0" function="internal">
        <lane id=":gneJ11_0_0" index="0" disallow="tram rail_urban rail rail_electric rail_fast ship" speed="19.00" length="15.14" width="3.66" shape="1332.10,872.84 1334.23,869.72 1336.41,866.59 1338.40,863.36 1339.95,859.95"/>
    </edge>
    <edge id=":gneJ11_1" function="internal">
        <lane id=":gneJ11_1_0" index="0" disallow="tram rail_urban rail rail_electric rail_fast ship" speed="15.65" length="16.23" width="3.66" shape="1335.35,875.51 1339.95,859.95"/>
    </edge>
    <edge id=":gneJ12_0" function="internal">
        <lane id=":gneJ12_0_0" index="0" disallow="tram rail_urban rail rail_electric rail_fast ship" speed="18.12" length="8.74" width="3.66" shape="1312.78,907.00 1310.67,905.56 1309.49,904.09 1308.26,902.77 1305.99,901.75"/>
    </edge>
    <edge id=":gneJ12_1" function="internal">
        <lane id=":gneJ12_1_0" index="0" disallow="tram rail_urban rail rail_electric rail_fast ship" speed="22.35" length="7.95" width="3.66" shape="1313.66,903.75 1305.99,901.75"/>
        <lane id=":gneJ12_1_1" index="1" disallow="tram rail_urban rail rail_electric rail_fast ship" speed="22.35" length="7.95" width="3.66" shape="1314.62,900.22 1306.91,898.20"/>
    </edge>
    <edge id=":gneJ14_0" function="internal">
        <lane id=":gneJ14_0_0" index="0" disallow="tram rail_urban rail rail_electric rail_fast ship" speed="13.89" length="17.45" width="3.66" shape="1313.46,950.33 1314.34,944.73 1314.38,940.29 1314.28,936.54 1314.73,932.98"/>
    </edge>
    <edge id=":gneJ14_1" function="internal">
        <lane id=":gneJ14_1_0" index="0" disallow="tram rail_urban rail rail_electric rail_fast ship" speed="13.89" length="17.06" width="3.66" shape="1313.46,950.33 1318.59,934.01"/>
        <lane id=":gneJ14_1_1" index="1" disallow="tram rail_urban rail rail_electric rail_fast ship" speed="13.89" length="17.06" width="3.66" shape="1317.01,951.20 1322.13,934.96"/>
    </edge>
    <edge id=":gneJ16_0" function="internal">
        <lane id=":gneJ16_0_0" index="0" disallow="tram rail_urban rail rail_electric rail_fast ship" speed="18.12" length="13.65" width="3.66" shape="1425.43,933.82 1421.25,933.17 1418.03,933.49 1415.13,933.92 1411.89,933.60"/>
    </edge>
    <edge id=":gneJ16_1" function="internal">
        <lane id=":gneJ16_1_0" index="0" disallow="tram rail_urban rail rail_electric rail_fast ship" speed="22.35" length="13.44" width="3.66" shape="1425.43,933.82 1412.88,929.95"/>
        <lane id=":gneJ16_1_1" index="1" disallow="tram rail_urban rail rail_electric rail_fast ship" speed="22.35" length="13.44" width="3.66" shape="1426.45,930.30 1413.84,926.42"/>
        <lane id=":gneJ16_1_2" index="2" disallow="tram rail_urban rail rail_electric rail_fast ship" speed="22.35" length="13.44" width="3.66" shape="1426.45,930.30 1422.77,928.59 1420.64,926.55 1418.50,924.53 1414.80,922.89"/>
    </edge>
    <edge id=":gneJ17_0" function="internal">
        <lane id=":gneJ17_0_0" index="0" disallow="tram rail_urban rail rail_electric rail_fast ship" speed="13.89" length="11.73" width="3.66" shape="1334.11,921.09 1331.86,923.48 1329.97,925.38 1328.43,927.46 1327.26,930.42"/>
    </edge>
    <edge id=":gneJ17_1" function="internal">
        <lane id=":gneJ17_1_0" index="0" disallow="tram rail_urban rail rail_electric rail_fast ship" speed="14.77" length="11.72" width="3.66" shape="1330.38,919.12 1327.26,930.42"/>
    </edge>
    <edge id=":gneJ18_0" function="internal">
        <lane id=":gneJ18_0_0" index="0" disallow="tram rail_urban rail rail_electric rail_fast ship" speed="18.12" length="19.23" width="3.66" shape="1372.75,899.94 1378.95,900.88 1383.95,900.67 1388.13,900.22 1391.87,900.46"/>
    </edge>
    <edge id=":gneJ18_1" function="internal">
        <lane id=":gneJ18_1_0" index="0" disallow="tram rail_urban rail rail_electric rail_fast ship" speed="22.35" length="18.73" width="3.66" shape="1372.75,899.94 1390.79,904.85"/>
        <lane id=":gneJ18_1_1" index="1" disallow="tram rail_urban rail rail_electric rail_fast ship" speed="22.35" length="18.73" width="3.66" shape="1371.81,903.48 1389.91,908.41"/>
    </edge>
    <edge id=":gneJ21_0" function="internal">
        <lane id=":gneJ21_0_0" index="0" disallow="tram rail_urban rail rail_electric rail_fast ship" speed="22.35" length="34.92" width="3.66" shape="1580.50,955.58 1614.68,962.80"/>
        <lane id=":gneJ21_0_1" index="1" disallow="tram rail_urban rail rail_electric rail_fast ship" speed="22.35" length="34.92" width="3.66" shape="1579.56,959.12 1613.72,966.33"/>
        <lane id=":gneJ21_0_2" index="2" disallow="tram rail_urban rail rail_electric rail_fast ship" speed="22.35" length="34.92" width="3.66" shape="1579.56,959.12 1612.77,969.86"/>
    </edge>
    <edge id=":gneJ22_0" function="internal">
        <lane id=":gneJ22_0_0" index="0" disallow="tram rail_urban rail rail_electric rail_fast ship" speed="19.00" length="17.65" width="3.66" shape="1656.23,974.05 1661.87,975.07 1666.35,975.15 1670.16,975.00 1673.77,975.34"/>
    </edge>
    <edge id=":gneJ22_1" function="internal">
        <lane id=":gneJ22_1_0" index="0" disallow="tram rail_urban rail rail_electric rail_fast ship" speed="22.35" length="17.59" width="3.66" shape="1656.23,974.05 1672.99,978.84"/>
        <lane id=":gneJ22_1_1" index="1" disallow="tram rail_urban rail rail_electric rail_fast ship" speed="22.35" length="17.59" width="3.66" shape="1655.27,977.58 1672.19,982.42"/>
        <lane id=":gneJ22_1_2" index="2" disallow="tram rail_urban rail rail_electric rail_fast ship" speed="22.35" length="17.59" width="3.66" shape="1654.32,981.11 1671.39,986.00"/>
    </edge>
    <edge id=":gneJ23_0" function="internal">
        <lane id=":gneJ23_0_0" index="0" disallow="tram rail_urban rail rail_electric rail_fast ship" speed="15.65" length="31.44" width="3.66" shape="1702.00,967.22 1703.05,960.99 1704.62,951.71 1706.09,942.43 1706.85,936.16"/>
    </edge>
    <edge id=":gneJ23_1" function="internal">
        <lane id=":gneJ23_1_0" index="0" disallow="tram rail_urban rail rail_electric rail_fast ship" speed="15.65" length="32.16" width="3.66" shape="1705.75,968.30 1706.85,936.16"/>
    </edge>
    <edge id=":gneJ24_0" function="internal">
        <lane id=":gneJ24_0_0" index="0" disallow="tram rail_urban rail rail_electric rail_fast ship" speed="19.00" length="14.66" width="3.66" shape="1733.49,992.28 1736.46,993.87 1738.95,995.79 1741.88,997.76 1746.15,999.53"/>
    </edge>
    <edge id=":gneJ24_1" function="internal">
        <lane id=":gneJ24_1_0" index="0" disallow="tram rail_urban rail rail_electric rail_fast ship" speed="22.35" length="14.31" width="3.66" shape="1732.42,995.61 1746.15,999.53"/>
        <lane id=":gneJ24_1_1" index="1" disallow="tram rail_urban rail rail_electric rail_fast ship" speed="22.35" length="14.31" width="3.66" shape="1731.30,999.09 1745.09,1003.03"/>
    </edge>
    <edge id=":gneJ26_0" function="internal">